%nprocshared=4
%mem=2GB
#HF/cc-pVTZ nosymm scf=tight opt=ModRedundant

Mol

0 1
H	 2.101330	 -0.693998	 0.936822
C	 1.955678	 -0.254241	 -0.058695
C	 0.690519	 0.540760	 -0.226458
O	 2.763084	 -0.426179	 -0.904961
C	 -0.554654	 -0.292621	 0.086567
H	 0.661095	 0.929618	 -1.235794
H	 0.742441	 1.383702	 0.459568
C	 -1.846385	 0.513195	 -0.016346
H	 -0.600270	 -1.136369	 -0.596036
H	 -0.470592	 -0.709737	 1.086877
C	 -3.089953	 -0.365049	 -0.098564
H	 -1.798267	 1.154820	 -0.891143
H	 -1.925398	 1.173265	 0.842889
H	 -3.055079	 -1.012299	 -0.968245
H	 -3.988403	 0.236438	 -0.170014
H	 -3.183055	 -0.995885	 0.779079

9 5 8 12 F
