%nprocshared=4
%mem=2GB
#HF/cc-pVTZ nosymm scf=tight opt=ModRedundant

Mol

0 1
O	 0.062449	 2.183305	 -2.009075
C	 0.872898	 1.974323	 -1.165908
C	 0.473803	 1.389009	 0.174308
C	 2.338953	 2.260603	 -1.388381
C	 0.376695	 -0.140025	 0.100361
H	 -0.491672	 1.801979	 0.437795
H	 1.188193	 1.676727	 0.938330
C	 1.630207	 -0.772146	 -0.501001
H	 0.203434	 -0.518015	 1.100028
H	 -0.487023	 -0.424022	 -0.495991
C	 2.907848	 -0.545876	 0.309149
H	 1.772784	 -0.391628	 -1.509394
H	 1.468529	 -1.842059	 -0.599744
C	 3.373802	 0.906639	 0.372125
H	 3.699140	 -1.146831	 -0.127906
H	 2.764321	 -0.923458	 1.318191
H	 3.519798	 1.311927	 -0.623875
H	 4.316899	 0.983758	 0.900700
H	 2.661122	 1.540651	 0.885346
H	 2.644203	 3.079481	 -0.744751
H	 2.513496	 2.528331	 -2.419121
H	 2.942100	 1.400508	 -1.119978

3 5 8 12 F
