%nprocshared=4
%mem=2GB
#HF/cc-pVTZ nosymm scf=tight opt=ModRedundant

Mol

0 1
H	 6.830139	 -7.991321	 -3.594019
O	 6.919685	 -7.395448	 -2.873778
C	 7.556133	 -6.217560	 -3.294236
C	 7.525630	 -5.107365	 -2.254418
H	 8.581796	 -6.493082	 -3.499378
H	 7.124009	 -5.865684	 -4.229064
C	 7.920899	 -5.553695	 -0.848572
H	 8.183358	 -4.308240	 -2.582975
H	 6.518408	 -4.698219	 -2.231995
C	 6.899631	 -6.500676	 -0.220022
H	 8.041461	 -4.680727	 -0.215805
H	 8.889808	 -6.048698	 -0.886954
C	 7.280909	 -7.038445	 1.160444
H	 5.938132	 -5.997057	 -0.155871
H	 6.754244	 -7.344469	 -0.888860
C	 8.488472	 -7.973960	 1.179010
H	 7.489247	 -6.192786	 1.810047
H	 6.424317	 -7.548351	 1.595647
C	 8.219844	 -9.309761	 0.490617
H	 8.784005	 -8.156347	 2.209963
H	 9.337785	 -7.497416	 0.698827
C	 7.568365	 -9.158219	 -0.879968
H	 9.154491	 -9.853974	 0.386479
H	 7.582912	 -9.919082	 1.126312
H	 8.196209	 -8.580142	 -1.549950
H	 7.394228	 -10.123582	 -1.341333
H	 6.612291	 -8.650571	 -0.805353

4 3 2 1 F
