%nprocshared=4
%mem=2GB
#HF/cc-pVTZ nosymm scf=tight opt=ModRedundant

Mol

0 1
H	 -3.258660	 -0.290394	 1.471450
C	 -3.307964	 -0.275695	 0.374072
C	 -2.653809	 0.914422	 -0.273689
O	 -3.855140	 -1.148880	 -0.205112
C	 -2.014918	 0.577587	 -1.624257
H	 -3.388576	 1.703730	 -0.365581
H	 -1.881141	 1.255146	 0.412020
C	 -3.028250	 0.219356	 -2.709159
H	 -1.427016	 1.429787	 -1.947470
H	 -1.312337	 -0.242168	 -1.495516
C	 -2.377564	 -0.103085	 -4.051702
H	 -3.722497	 1.046266	 -2.833044
H	 -3.626764	 -0.629237	 -2.388071
C	 -3.394181	 -0.449251	 -5.137937
H	 -1.774782	 0.744380	 -4.362834
H	 -1.690778	 -0.937290	 -3.926305
C	 -2.785442	 -0.859316	 -6.480019
H	 -4.058346	 0.398273	 -5.290818
H	 -4.019831	 -1.262547	 -4.780984
C	 -2.029861	 0.251948	 -7.204779
H	 -3.584530	 -1.213042	 -7.124013
H	 -2.122108	 -1.706904	 -6.328736
H	 -2.666963	 1.116071	 -7.364113
H	 -1.159591	 0.580669	 -6.649569
H	 -1.686456	 -0.087056	 -8.175404

6 3 2 4 F
