%nprocshared=4
%mem=2GB
#HF/cc-pVTZ nosymm scf=tight opt=ModRedundant

Mol

0 1
O	 1.809176	 1.248709	 -0.338982
C	 1.704209	 0.119472	 -0.000093
C	 0.434899	 -0.536209	 0.480090
O	 2.715427	 -0.733672	 0.000025
C	 -0.767112	 0.397055	 0.502718
H	 0.254798	 -1.393649	 -0.160073
H	 0.636466	 -0.941537	 1.466255
C	 -2.033184	 -0.298789	 0.993514
H	 -0.928370	 0.796162	 -0.492261
H	 -0.546151	 1.248945	 1.135765
C	 -3.249791	 0.621770	 1.023640
H	 -2.247758	 -1.153586	 0.355916
H	 -1.863691	 -0.699502	 1.990479
C	 -4.515296	 -0.073759	 1.513688
H	 -3.420587	 1.021823	 0.028178
H	 -3.037196	 1.475072	 1.661480
H	 -4.773899	 -0.911993	 0.875157
H	 -5.358722	 0.606894	 1.522570
H	 -4.387619	 -0.454816	 2.521521
C	 4.020999	 -0.192556	 0.000019
H	 4.182809	 0.412891	 -0.879449
H	 4.692590	 -1.035653	 0.000152
H	 4.182726	 0.413087	 0.879368

1 2 4 20 F
