%nprocshared=4
%mem=2GB
#HF/cc-pVTZ nosymm scf=tight opt=ModRedundant

Mol

0 1
H	 -2.698799	 -0.000846	 0.036018
C	 -1.694291	 -0.000483	 0.434279
O	 -0.828718	 -0.000608	 -0.655022
H	 -1.576855	 0.881100	 1.056504
H	 -1.576401	 -0.881658	 1.057001
C	 0.557892	 0.000078	 -0.420099
C	 1.346564	 0.614601	 -1.571025
C	 0.923538	 0.615547	 0.925914
H	 0.802304	 -1.054025	 -0.378293
H	 1.035624	 0.182395	 -2.514197
H	 2.404036	 0.417292	 -1.438484
H	 1.219761	 1.689483	 -1.626999
H	 0.319299	 0.183949	 1.714369
H	 1.965672	 0.418378	 1.149197
H	 0.785406	 1.690421	 0.936219

9 6 3 2 F
