%nprocshared=4
%mem=2GB
#HF/cc-pVTZ nosymm scf=tight opt=ModRedundant

Mol

0 1
O	 -1.278239	 1.034789	 -0.784693
C	 -1.204115	 0.062668	 -0.112312
C	 -2.386398	 -0.667698	 0.460323
O	 -0.068058	 -0.518372	 0.226882
H	 -2.382952	 -1.693172	 0.114333
H	 -3.296656	 -0.175702	 0.158400
H	 -2.312537	 -0.685191	 1.540100
C	 0.374986	 -0.454404	 1.586449
C	 1.885098	 -0.577234	 1.546600
C	 -0.288897	 -1.552767	 2.397291
H	 0.091684	 0.508958	 1.982379
H	 2.318293	 0.219496	 0.955573
H	 2.288792	 -0.517586	 2.550186
H	 2.182091	 -1.524865	 1.113327
H	 0.054783	 -1.513431	 3.424343
H	 -1.363493	 -1.434907	 2.396067
H	 -0.041360	 -2.527070	 1.991407

8 4 2 1 F
