%nprocshared=4
%mem=2GB
#HF/cc-pVTZ nosymm scf=tight opt=ModRedundant

Mol

0 1
H	 6.830139	 -7.991321	 -3.594019
O	 6.919685	 -7.395448	 -2.873778
C	 7.556133	 -6.217560	 -3.294236
C	 6.634482	 -5.007438	 -3.323410
H	 8.356558	 -6.045794	 -2.587273
H	 8.014354	 -6.361670	 -4.270820
C	 5.786183	 -4.834633	 -2.065485
H	 7.236898	 -4.118245	 -3.483374
H	 5.981172	 -5.105816	 -4.187068
C	 4.736379	 -5.933259	 -1.904954
H	 5.295550	 -3.867434	 -2.093902
H	 6.435017	 -4.830923	 -1.191250
C	 3.906140	 -5.851454	 -0.622665
H	 4.070933	 -5.919411	 -2.764731
H	 5.238701	 -6.896392	 -1.927678
C	 4.684037	 -6.100621	 0.668278
H	 3.456928	 -4.863551	 -0.569906
H	 3.079077	 -6.555131	 -0.685601
C	 5.161623	 -7.543734	 0.808801
H	 4.055349	 -5.847835	 1.519348
H	 5.544772	 -5.440664	 0.719207
C	 5.847821	 -8.073611	 -0.445892
H	 5.845472	 -7.614936	 1.650144
H	 4.314492	 -8.179795	 1.051409
H	 6.718887	 -7.477422	 -0.696970
H	 6.176305	 -9.097885	 -0.311477
H	 5.177050	 -8.051095	 -1.298483

4 3 2 1 F
