%nprocshared=4
%mem=2GB
#HF/cc-pVTZ nosymm scf=tight opt=ModRedundant

Mol

0 1
O	 -2.817697	 1.304178	 0.001046
C	 -2.664672	 0.129869	 0.003507
C	 -3.797908	 -0.860100	 -0.001145
O	 -1.481217	 -0.452708	 0.001092
H	 -4.408836	 -0.679689	 -0.875387
H	 -3.443486	 -1.878443	 -0.002770
H	 -4.412123	 -0.683688	 0.871605
C	 -0.332055	 0.384012	 -0.000250
C	 0.892252	 -0.506059	 -0.000295
H	 -0.360822	 1.020205	 -0.874146
H	 -0.359817	 1.021310	 0.872861
C	 2.188199	 0.299473	 -0.001416
H	 0.857046	 -1.152781	 -0.871031
H	 0.857910	 -1.151798	 0.871202
C	 3.029706	 0.079653	 1.252646
H	 2.777113	 0.037622	 -0.876968
H	 1.957216	 1.357674	 -0.095392
C	 4.324260	 0.885343	 1.252460
H	 3.262652	 -0.977204	 1.346703
H	 2.442300	 0.341140	 2.128240
H	 4.949628	 0.621140	 0.406318
H	 4.897105	 0.707000	 2.154984
H	 4.122919	 1.949696	 1.193580

16 12 9 13 F
