%nprocshared=4
%mem=2GB
#HF/cc-pVTZ nosymm scf=tight opt=ModRedundant

Mol

0 1
O	 1.371313	 1.045657	 0.700935
C	 1.121787	 0.124983	 0.000110
C	 -0.170912	 -0.649867	 -0.000147
O	 1.969101	 -0.353489	 -0.896273
C	 -1.413045	 0.229353	 0.001137
H	 -0.152877	 -1.303435	 -0.866175
H	 -0.152278	 -1.305116	 0.864586
C	 -1.077800	 1.708765	 0.166239
H	 -2.075772	 -0.088213	 0.798310
H	 -1.960242	 0.077607	 -0.922493
C	 -2.315745	 2.598911	 0.171158
H	 -0.526733	 1.854027	 1.091692
H	 -0.413438	 2.021100	 -0.635201
H	 -2.984201	 2.333784	 0.983229
H	 -2.047879	 3.642393	 0.289773
H	 -2.870018	 2.502187	 -0.756207
C	 3.226978	 0.281687	 -1.004047
H	 3.107866	 1.319775	 -1.276836
H	 3.762124	 -0.246898	 -1.776112
H	 3.765395	 0.222432	 -0.069799

9 5 3 6 F
