%nprocshared=4
%mem=2GB
#HF/6-31G* nosymm scf=tight opt=ModRedundant

Mol

0 1
H	 2.752225	 1.281957	 0.897739
O	 3.475704	 1.015548	 0.349399
C	 3.562612	 -0.386612	 0.328245
C	 2.456445	 -1.045194	 -0.488695
H	 4.525818	 -0.615209	 -0.109536
H	 3.566402	 -0.783516	 1.342756
C	 1.050516	 -0.822746	 0.074111
H	 2.506570	 -0.665800	 -1.506003
H	 2.661446	 -2.113330	 -0.537963
C	 -0.031614	 -1.540952	 -0.737057
H	 0.839544	 0.242772	 0.097070
H	 1.014157	 -1.172061	 1.106098
C	 -1.449679	 -1.421197	 -0.166891
H	 -0.021639	 -1.165388	 -1.758673
H	 0.226121	 -2.596090	 -0.799965
C	 -2.037799	 -0.007733	 -0.193645
H	 -2.103311	 -2.079418	 -0.735510
H	 -1.458919	 -1.796486	 0.855318
C	 -3.489788	 0.042957	 0.286558
H	 -1.981954	 0.385204	 -1.207840
H	 -1.440233	 0.658050	 0.424377
C	 -4.216917	 1.317354	 -0.141063
H	 -4.025645	 -0.823308	 -0.095450
H	 -3.513059	 -0.038752	 1.371301
H	 -4.239342	 1.411634	 -1.223113
H	 -5.243387	 1.322503	 0.212445
H	 -3.726170	 2.201406	 0.256408

20 16 19 22 F
