%nprocshared=4
%mem=2GB
#HF/cc-pVTZ nosymm scf=tight opt=ModRedundant

Mol

0 1
O	 3.219313	 0.959291	 -0.614106
C	 2.698710	 0.058177	 -0.050237
C	 1.246364	 -0.005813	 0.348416
O	 3.344101	 -1.038700	 0.312317
C	 0.453207	 1.232821	 -0.049003
H	 0.839270	 -0.907818	 -0.092281
H	 1.216683	 -0.160521	 1.422434
C	 -0.998367	 1.217982	 0.432195
H	 0.481498	 1.345443	 -1.127236
H	 0.951413	 2.105557	 0.354893
C	 -1.882951	 0.151251	 -0.211235
H	 -1.429490	 2.193659	 0.228843
H	 -1.019755	 1.099323	 1.513279
C	 -3.358558	 0.303582	 0.148162
H	 -1.770420	 0.199552	 -1.291918
H	 -1.550986	 -0.839198	 0.085996
C	 -4.251110	 -0.760429	 -0.484298
H	 -3.702988	 1.288074	 -0.159221
H	 -3.470450	 0.267308	 1.229379
C	 -5.723864	 -0.600497	 -0.122089
H	 -4.140536	 -0.725270	 -1.564695
H	 -3.909899	 -1.744946	 -0.175821
H	 -6.328827	 -1.370768	 -0.586511
H	 -6.105043	 0.361183	 -0.449173
H	 -5.872374	 -0.665546	 0.950721
C	 4.720529	 -1.114346	 0.001449
H	 4.874321	 -1.055557	 -1.065852
H	 5.057824	 -2.067950	 0.373977
H	 5.264321	 -0.313596	 0.480350

15 11 8 5 F
