%nprocshared=4
%mem=2GB
#HF/cc-pVTZ nosymm scf=tight opt=ModRedundant

Mol

0 1
H	 -3.840641	 -2.092644	 0.607901
C	 -2.771392	 -2.001640	 0.632396
C	 -2.024409	 -2.853106	 1.426539
C	 -2.144899	 -1.033870	 -0.129780
H	 -2.511372	 -3.604041	 2.017864
C	 -0.650467	 -2.735553	 1.457490
H	 -2.725089	 -0.374043	 -0.745312
C	 -0.769235	 -0.914911	 -0.099858
H	 -0.056855	 -3.386390	 2.066665
C	 -0.017808	 -1.766227	 0.694579
H	 -0.280937	 -0.166504	 -0.688910
C	 1.469073	 -1.679962	 0.762854
O	 1.968286	 -0.725612	 -0.000027
O	 2.140903	 -2.391905	 1.431406
C	 3.373556	 -0.568203	 0.000011
H	 3.695416	 -0.031588	 -0.879663
H	 3.782700	 -1.565294	 -0.000152
H	 3.695405	 -0.031851	 0.879862

12 13 15 16 F
