%nprocshared=1
%mem=2GB
#HF/6-31G* nosymm scf=tight opt=ModRedundant

Mol

0 1
O	 -2.184205	 1.598921	 -0.235212
C	 -2.055869	 0.412683	 -0.206875
C	 -0.841113	 -0.253961	 -0.828374
C	 -3.070859	 -0.479675	 0.471997
C	 0.379448	 -0.143569	 0.099626
H	 -0.631028	 0.252232	 -1.764290
H	 -1.047984	 -1.297669	 -1.047243
C	 1.631333	 -0.777471	 -0.511575
H	 0.548203	 0.905912	 0.312924
H	 0.161364	 -0.626607	 1.050868
C	 2.915987	 -0.544314	 0.291766
H	 1.766672	 -0.399098	 -1.523130
H	 1.471257	 -1.849544	 -0.605828
C	 3.373361	 0.914346	 0.347591
H	 3.708709	 -1.142521	 -0.150311
H	 2.780642	 -0.921148	 1.303579
H	 3.506512	 1.320010	 -0.651625
H	 4.322697	 0.999599	 0.867103
H	 2.660624	 1.545032	 0.868198
H	 -3.563981	 -1.102290	 -0.269924
H	 -3.809156	 0.121853	 0.983724
H	 -2.584862	 -1.147048	 1.177847

3 5 8 12 F
