%nprocshared=4
%mem=2GB
#HF/cc-pVTZ nosymm scf=tight opt=ModRedundant

Mol

0 1
H	 2.614283	 2.028610	 0.296620
O	 3.358864	 1.662087	 -0.142800
C	 3.565468	 0.338079	 0.273842
C	 2.533667	 -0.637565	 -0.272227
H	 4.548038	 0.064914	 -0.086598
H	 3.593945	 0.282242	 1.360360
C	 1.114816	 -0.402372	 0.240993
H	 2.544552	 -0.580764	 -1.356576
H	 2.850574	 -1.642962	 -0.005497
C	 1.056655	 -0.224650	 1.757525
H	 0.485489	 -1.237021	 -0.049373
H	 0.700773	 0.483316	 -0.237975
C	 -0.331715	 0.087717	 2.318871
H	 1.444335	 -1.120239	 2.236953
H	 1.729005	 0.581984	 2.036374
C	 -1.348705	 -1.045619	 2.196304
H	 -0.224936	 0.343715	 3.369391
H	 -0.723950	 0.977133	 1.830766
C	 -2.685813	 -0.722504	 2.858233
H	 -0.936247	 -1.946616	 2.645249
H	 -1.523455	 -1.279410	 1.150452
C	 -3.704778	 -1.850459	 2.734458
H	 -2.521398	 -0.499927	 3.908949
H	 -3.095193	 0.182198	 2.416664
H	 -3.337974	 -2.761554	 3.195541
H	 -4.640130	 -1.589865	 3.216449
H	 -3.919760	 -2.071844	 1.694206

10 7 4 8 F
