%nprocshared=1
%mem=2GB
#HF/6-31G* nosymm scf=tight 

Mol

0 1
O	 2.862325	 1.357334	 0.000267
C	 2.843464	 0.164689	 -0.000222
C	 1.546494	 -0.624492	 -0.000609
C	 4.124123	 -0.644674	 -0.000428
C	 0.291004	 0.242674	 0.000989
H	 1.557904	 -1.283758	 -0.867573
H	 1.558622	 -1.285963	 0.864672
C	 -0.108668	 0.698242	 -1.403462
H	 0.456445	 1.106965	 0.636409
H	 -0.523960	 -0.312082	 0.455112
C	 -1.365723	 1.569697	 -1.413980
H	 0.714349	 1.250888	 -1.854319
H	 -0.271451	 -0.173358	 -2.035825
C	 -1.771871	 2.029521	 -2.815272
H	 -1.203880	 2.441664	 -0.782712
H	 -2.189337	 1.017937	 -0.964294
C	 -3.028225	 2.899725	 -2.817550
H	 -0.949804	 2.582212	 -3.265340
H	 -1.935399	 1.158735	 -3.446817
H	 -2.884910	 3.796556	 -2.221475
H	 -3.290344	 3.210288	 -3.824299
H	 -3.877773	 2.362624	 -2.405318
H	 4.165367	 -1.288615	 -0.874074
H	 4.976217	 0.020734	 -0.001915
H	 4.166763	 -1.286207	 0.874930

9 5 8 12 F
15 11 8 12 F
15 11 14 18 F
1 2 3 6 F
