%nprocshared=1
%mem=2GB
#HF/6-31G* nosymm scf=tight 

Mol

0 1
H	 -4.031818	 -0.453427	 -0.000094
C	 -2.967712	 -0.297022	 -0.000064
C	 -2.458620	 0.992929	 0.000032
C	 -2.109895	 -1.385637	 -0.000122
H	 -3.124998	 1.836319	 0.000077
C	 -1.090278	 1.193236	 0.000070
H	 -2.506361	 -2.384847	 -0.000198
C	 -0.739812	 -1.187531	 -0.000085
H	 -0.678594	 2.184290	 0.000146
C	 -0.226438	 0.104061	 0.000012
H	 -0.072310	 -2.027032	 -0.000131
C	 1.239129	 0.373821	 0.000060
O	 1.788009	 0.259758	 -1.200075
O	 1.862614	 0.662940	 0.972961
C	 3.181061	 0.499820	 -1.291975
H	 3.412532	 1.508020	 -0.980931
H	 3.435283	 0.360031	 -2.331053
H	 3.726879	 -0.198427	 -0.674355

12 13 15 16 F
10 12 13 15 F
