%nprocshared=4
%mem=2GB
#HF/6-31G* nosymm scf=tight opt=ModRedundant

Mol

0 1
O	 2.862325	 1.357334	 0.000267
C	 2.843464	 0.164689	 -0.000222
C	 1.546494	 -0.624492	 -0.000609
C	 4.124123	 -0.644674	 -0.000428
C	 0.291004	 0.242674	 0.000989
H	 1.557904	 -1.283758	 -0.867573
H	 1.558622	 -1.285963	 0.864672
C	 -0.994322	 -0.586602	 0.000262
H	 0.309117	 0.896430	 -0.865270
H	 0.309661	 0.894078	 0.869017
C	 -2.259874	 0.272531	 0.000494
H	 -1.004862	 -1.240012	 -0.870939
H	 -1.005220	 -1.241071	 0.870675
C	 -3.480386	 -0.447672	 0.576402
H	 -2.478089	 0.591306	 -1.017241
H	 -2.077076	 1.181556	 0.570805
C	 -4.740652	 0.416853	 0.573040
H	 -3.664825	 -1.355900	 0.006378
H	 -3.264007	 -0.765482	 1.594261
H	 -5.003161	 0.723138	 -0.435637
H	 -5.588313	 -0.121045	 0.986363
H	 -4.599922	 1.317178	 1.164441
H	 4.165367	 -1.288615	 -0.874074
H	 4.976217	 0.020734	 -0.001915
H	 4.166763	 -1.286207	 0.874930

15 11 8 12 F
