%nprocshared=4
%mem=2GB
#HF/cc-pVTZ nosymm scf=tight opt=ModRedundant

Mol

0 1
H	 0.372786	 -3.063731	 -4.270100
O	 1.311417	 -3.054546	 -4.296892
C	 1.799065	 -1.830421	 -3.814203
C	 1.658666	 -1.673376	 -2.307448
H	 2.845903	 -1.802073	 -4.084955
H	 1.312159	 -1.000761	 -4.323160
C	 2.922031	 -2.015289	 -1.520775
H	 1.359504	 -0.651763	 -2.093054
H	 0.845422	 -2.316100	 -1.978908
C	 3.268908	 -3.502359	 -1.576765
H	 2.793470	 -1.712951	 -0.486818
H	 3.757991	 -1.439080	 -1.913763
C	 4.567150	 -3.890365	 -0.866642
H	 2.445803	 -4.076826	 -1.158778
H	 3.345743	 -3.799675	 -2.618959
C	 5.842212	 -3.343155	 -1.505799
H	 4.514489	 -3.534216	 0.158498
H	 4.632191	 -4.974432	 -0.805621
C	 7.100240	 -3.673546	 -0.706662
H	 5.756669	 -2.263409	 -1.607288
H	 5.953834	 -3.735418	 -2.512116
C	 8.375518	 -3.131893	 -1.343976
H	 7.002195	 -3.272881	 0.298541
H	 7.182656	 -4.751631	 -0.597107
H	 8.337703	 -2.051633	 -1.438030
H	 9.247952	 -3.381378	 -0.750913
H	 8.522576	 -3.543501	 -2.337105

8 4 3 2 F
