%nprocshared=4
%mem=2GB
#HF/cc-pVTZ nosymm scf=tight opt=ModRedundant

Mol

0 1
H	 -0.930875	 -8.686985	 -1.085517
O	 -0.317999	 -8.807941	 -1.786647
C	 -0.911885	 -8.474804	 -3.013673
C	 -1.112761	 -6.978756	 -3.203876
H	 -0.243511	 -8.850045	 -3.776856
H	 -1.859697	 -8.996749	 -3.130612
C	 0.111776	 -6.132991	 -2.861765
H	 -1.406213	 -6.797827	 -4.233589
H	 -1.947949	 -6.671699	 -2.578916
C	 0.439750	 -6.144265	 -1.369404
H	 -0.055519	 -5.111672	 -3.187223
H	 0.971410	 -6.502127	 -3.418589
C	 1.701674	 -5.372571	 -0.979160
H	 -0.408059	 -5.749654	 -0.814671
H	 0.555784	 -7.176085	 -1.049477
C	 3.009841	 -5.968591	 -1.496077
H	 1.611329	 -4.357962	 -1.357227
H	 1.748870	 -5.286946	 0.104166
C	 3.483501	 -7.168232	 -0.679428
H	 3.781425	 -5.201776	 -1.485084
H	 2.898094	 -6.272898	 -2.532375
C	 4.787405	 -7.768073	 -1.195101
H	 3.610487	 -6.868801	 0.357294
H	 2.710250	 -7.931867	 -0.682378
H	 5.589371	 -7.037552	 -1.174452
H	 5.096164	 -8.614511	 -0.592342
H	 4.682460	 -8.112344	 -2.218729

10 13 16 20 F
