%nprocshared=4
%mem=2GB
#HF/6-31G* nosymm scf=tight opt=ModRedundant

Mol

0 1
H	 -3.135461	 -1.215070	 0.001379
O	 -2.310168	 -0.871793	 -0.309793
C	 -2.026376	 0.340750	 0.341611
C	 -0.673256	 0.843270	 -0.132153
H	 -2.792215	 1.080697	 0.115987
H	 -2.013526	 0.200402	 1.421792
C	 0.486613	 -0.083066	 0.235839
H	 -0.715586	 0.970948	 -1.210718
H	 -0.508072	 1.829858	 0.297090
C	 1.796469	 0.669113	 0.477335
H	 0.625035	 -0.811558	 -0.556406
H	 0.225825	 -0.645366	 1.131745
C	 2.954183	 -0.256030	 0.850806
H	 2.058546	 1.230528	 -0.417006
H	 1.653225	 1.403890	 1.267289
H	 3.144785	 -0.980784	 0.064491
H	 3.869882	 0.304221	 1.013776
H	 2.737364	 -0.807459	 1.761535

10 7 4 8 F
