%nprocshared=4
%mem=2GB
#HF/cc-pVTZ nosymm scf=tight opt=ModRedundant

Mol

0 1
H	 -2.467534	 2.216416	 -2.043731
C	 -3.133105	 2.001940	 -1.196441
C	 -2.653809	 0.914422	 -0.273689
O	 -4.143610	 2.602400	 -1.071397
C	 -1.216901	 1.136108	 0.207794
H	 -3.345028	 0.836794	 0.555482
H	 -2.702384	 -0.014587	 -0.837504
C	 -0.247837	 0.040196	 -0.230469
H	 -0.872882	 2.093195	 -0.169002
H	 -1.209325	 1.218376	 1.291938
C	 1.181757	 0.280428	 0.247371
H	 -0.259600	 -0.030819	 -1.314870
H	 -0.591284	 -0.923375	 0.136958
C	 2.151032	 -0.811012	 -0.202643
H	 1.515939	 1.247397	 -0.115449
H	 1.191514	 0.341223	 1.333422
C	 3.580021	 -0.656538	 0.320835
H	 2.170545	 -0.847575	 -1.289412
H	 1.766632	 -1.772905	 0.124928
C	 4.327657	 0.562694	 -0.213579
H	 4.138806	 -1.549270	 0.057813
H	 3.561991	 -0.620783	 1.406976
H	 4.355973	 0.557257	 -1.298551
H	 3.867136	 1.491650	 0.100501
H	 5.351524	 0.571613	 0.142204

6 3 5 8 F
