%nprocshared=4
%mem=2GB
#HF/cc-pVTZ nosymm scf=tight opt=ModRedundant

Mol

0 1
H	 -2.078904	 -2.925223	 5.822521
C	 -1.386227	 -2.096177	 5.734496
C	 -1.187648	 -1.696172	 4.276454
H	 -1.784216	 -1.269782	 6.313194
H	 -0.448951	 -2.398342	 6.190576
C	 -0.208033	 -0.536222	 4.112625
H	 -2.144898	 -1.424309	 3.846685
H	 -0.824016	 -2.553899	 3.715295
C	 0.015399	 -0.117957	 2.662791
H	 -0.561324	 0.318699	 4.675763
H	 0.750741	 -0.819980	 4.536911
C	 -1.158526	 0.603377	 2.022431
H	 0.858964	 0.565028	 2.601991
H	 0.284232	 -0.972361	 2.048592
C	 -1.180025	 0.697761	 0.509157
O	 -2.020477	 1.095849	 2.676485
C	 -2.285431	 -0.137488	 -0.145671
H	 -0.209921	 0.373472	 0.157623
H	 -1.304974	 1.741273	 0.232271
C	 -3.646545	 0.082747	 0.508954
H	 -2.348635	 0.118247	 -1.199806
H	 -2.034895	 -1.192387	 -0.096473
C	 -4.757412	 -0.737227	 -0.138149
H	 -3.900211	 1.137405	 0.459735
H	 -3.580878	 -0.166775	 1.564416
H	 -4.867876	 -0.486707	 -1.187777
H	 -4.549650	 -1.800049	 -0.072540
H	 -5.709585	 -0.556397	 0.346597

16 12 15 17 F
