%nprocshared=4
%mem=2GB
#HF/cc-pVTZ nosymm scf=tight opt=ModRedundant

Mol

0 1
H	 -0.677821	 4.243415	 0.745301
O	 0.139273	 3.767996	 0.752533
C	 -0.103622	 2.507955	 0.402914
C	 1.152780	 1.680080	 0.392445
O	 -1.191994	 2.125901	 0.143200
C	 0.926581	 0.227233	 0.000178
H	 1.594575	 1.757991	 1.380612
H	 1.850142	 2.167008	 -0.281577
C	 2.220156	 -0.582071	 -0.000088
H	 0.212826	 -0.220565	 0.682429
H	 0.468701	 0.188942	 -0.981810
C	 3.466689	 0.296012	 -0.000457
H	 2.239073	 -1.234095	 -0.869382
H	 2.239505	 -1.233985	 0.869270
H	 3.493549	 0.935857	 -0.875887
H	 4.368821	 -0.304526	 -0.001199
H	 3.494559	 0.935166	 0.875458

10 6 9 13 F
