%nprocshared=4
%mem=2GB
#HF/cc-pVTZ nosymm scf=tight opt=ModRedundant

Mol

0 1
H	 3.017343	 1.335576	 0.919779
C	 2.358976	 0.522222	 0.633785
C	 0.945561	 1.042991	 0.411159
H	 2.365425	 -0.219386	 1.423024
H	 2.772685	 0.064552	 -0.256224
N	 0.000297	 0.000045	 0.046090
H	 0.609422	 1.501858	 1.330706
H	 0.956957	 1.839858	 -0.337709
C	 -1.359159	 0.315706	 0.454404
C	 0.087574	 -0.360714	 -1.359883
C	 -2.416729	 -0.286720	 -0.460525
H	 -1.478729	 1.390261	 0.442008
H	 -1.539692	 0.003361	 1.486761
C	 -0.331079	 -1.797885	 -1.638642
H	 1.113633	 -0.242933	 -1.679868
H	 -0.501763	 0.323855	 -1.976292
H	 -2.285276	 0.073129	 -1.473515
H	 -2.371743	 -1.368476	 -0.483209
H	 -3.408658	 -0.007405	 -0.121593
H	 0.295038	 -2.485298	 -1.083350
H	 -1.360547	 -1.986715	 -1.360587
H	 -0.231880	 -2.018762	 -2.696085

3 6 9 11 F
