%nprocshared=4
%mem=2GB
#HF/cc-pVTZ nosymm scf=tight opt=ModRedundant

Mol

0 1
H	 -0.366580	 2.045936	 -0.305741
C	 0.351829	 1.335402	 0.083179
N	 -0.000018	 0.000080	 -0.334836
H	 1.327156	 1.599860	 -0.305475
H	 0.380566	 1.445403	 1.171445
C	 0.931321	 -0.525111	 -1.303939
C	 -0.169916	 -0.890119	 0.788071
H	 0.599423	 -1.496952	 -1.646666
H	 0.981722	 0.132529	 -2.162517
H	 1.943306	 -0.635578	 -0.902998
H	 -0.924664	 -0.499492	 1.458853
H	 -0.500409	 -1.861665	 0.443110
H	 0.751392	 -1.030365	 1.361336

6 3 2 1 F
