%nprocshared=1
%mem=2GB
#HF/6-31G* nosymm scf=tight opt=ModRedundant

Mol

0 1
O	 0.625848	 1.349995	 -0.000749
C	 0.486307	 0.169203	 0.000779
C	 1.608116	 -0.841643	 0.000302
O	 -0.698257	 -0.426125	 0.001050
C	 2.990107	 -0.200498	 -0.000684
H	 1.468623	 -1.481519	 -0.865924
H	 1.469683	 -1.481289	 0.866878
H	 3.129736	 0.423364	 -0.875135
H	 3.757882	 -0.966877	 -0.001197
H	 3.130964	 0.423383	 0.873533
C	 -1.285669	 -0.721708	 1.263974
C	 -2.618549	 -1.389353	 0.999413
H	 -1.402695	 0.197228	 1.822048
H	 -0.619145	 -1.366221	 1.820696
H	 -3.272497	 -0.733204	 0.436405
H	 -3.102835	 -1.632814	 1.939541
H	 -2.484766	 -2.305269	 0.435093

11 4 2 3 F
