%nprocshared=4
%mem=2GB
#HF/cc-pVTZ nosymm scf=tight opt=ModRedundant

Mol

0 1
H	 2.805474	 2.687947	 -4.215332
C	 3.114507	 2.297848	 -3.252426
C	 1.944090	 2.248641	 -2.276195
H	 3.527635	 1.308129	 -3.413663
H	 3.911811	 2.932329	 -2.878876
C	 2.344991	 1.713504	 -0.903287
H	 1.158420	 1.627605	 -2.690894
H	 1.528258	 3.247274	 -2.163772
C	 1.194702	 1.658716	 0.097073
H	 2.766954	 0.721846	 -1.010010
H	 3.125362	 2.346426	 -0.490716
C	 0.166485	 0.574257	 -0.177158
H	 1.581955	 1.462486	 1.093715
H	 0.689552	 2.617967	 0.161722
C	 -1.180025	 0.697761	 0.509157
O	 0.407772	 -0.349977	 -0.884864
C	 -2.285431	 -0.137488	 -0.145671
H	 -1.447360	 1.745713	 0.496200
H	 -1.065514	 0.394096	 1.546399
C	 -3.646545	 0.082747	 0.508954
H	 -2.348635	 0.118247	 -1.199806
H	 -2.034895	 -1.192387	 -0.096473
C	 -4.757412	 -0.737227	 -0.138149
H	 -3.900211	 1.137405	 0.459735
H	 -3.580878	 -0.166775	 1.564416
H	 -4.867876	 -0.486707	 -1.187777
H	 -4.549650	 -1.800049	 -0.072540
H	 -5.709585	 -0.556397	 0.346597

16 12 15 17 F
