%nprocshared=4
%mem=2GB
#HF/cc-pVTZ nosymm scf=tight opt=ModRedundant

Mol

0 1
H	 -3.436473	 1.252944	 -1.023892
O	 -3.458596	 0.315260	 -0.960865
C	 -3.176635	 -0.080824	 0.355601
C	 -1.763371	 0.265266	 0.799691
H	 -3.321825	 -1.153438	 0.379502
H	 -3.895468	 0.357385	 1.043382
C	 -0.673390	 -0.426948	 -0.013392
H	 -1.631049	 1.344913	 0.747560
H	 -1.664587	 -0.001624	 1.849167
C	 0.737842	 -0.043159	 0.423759
H	 -0.806103	 -0.190518	 -1.063345
H	 -0.797221	 -1.503753	 0.074146
C	 1.007258	 -0.345206	 1.896590
H	 1.454762	 -0.568704	 -0.199714
H	 0.896046	 1.017959	 0.242494
C	 2.381600	 0.095627	 2.403245
H	 0.887074	 -1.411894	 2.071472
H	 0.245975	 0.146364	 2.496112
C	 3.559874	 -0.655388	 1.787786
H	 2.409105	 -0.038451	 3.480298
H	 2.503114	 1.161498	 2.228391
H	 3.462512	 -1.725364	 1.941892
H	 4.494016	 -0.341454	 2.239523
H	 3.640148	 -0.480997	 0.721602

13 10 7 11 F
