%nprocshared=4
%mem=2GB
#HF/cc-pVTZ nosymm scf=tight opt=ModRedundant

Mol

0 1
H	 -3.498985	 1.253143	 -1.010443
O	 -3.458596	 0.315260	 -0.960865
C	 -3.176635	 -0.080824	 0.355601
C	 -1.763371	 0.265266	 0.799691
H	 -3.321825	 -1.153438	 0.379502
H	 -3.895468	 0.357385	 1.043382
C	 -1.443608	 -0.160101	 2.229774
H	 -1.054560	 -0.194222	 0.112434
H	 -1.631184	 1.339731	 0.697515
C	 -2.229757	 0.621253	 3.279262
H	 -0.380625	 -0.041830	 2.408637
H	 -1.654291	 -1.221396	 2.338271
C	 -3.721192	 0.709528	 2.961652
H	 -2.084052	 0.153977	 4.248444
H	 -1.822336	 1.626824	 3.361069
C	 -4.067669	 1.536780	 1.722517
H	 -4.247310	 1.116849	 3.821965
H	 -4.105916	 -0.296952	 2.821632
C	 -3.762580	 3.027806	 1.844614
H	 -5.126224	 1.415133	 1.514098
H	 -3.541875	 1.130984	 0.862115
H	 -4.270628	 3.460030	 2.700853
H	 -4.094131	 3.561595	 0.961220
H	 -2.702106	 3.217113	 1.959341

7 4 3 2 F
