%nprocshared=4
%mem=2GB
#HF/6-31G* nosymm scf=tight opt=ModRedundant

Mol

0 1
H	 3.894224	 0.342957	 0.103333
N	 3.091006	 -0.254810	 0.135903
C	 1.863931	 0.528541	 0.122770
H	 3.159545	 -0.785693	 0.983426
C	 0.644089	 -0.385443	 0.074046
H	 1.880471	 1.152056	 -0.765945
H	 1.776838	 1.204031	 0.977478
C	 -0.679275	 0.379305	 0.025956
H	 0.735222	 -1.033089	 -0.793182
H	 0.652358	 -1.036763	 0.947574
C	 -1.903357	 -0.536963	 -0.023547
H	 -0.686946	 1.032639	 -0.845219
H	 -0.755635	 1.030676	 0.895284
C	 -3.225172	 0.228290	 0.028445
H	 -1.867824	 -1.134999	 -0.931459
H	 -1.860449	 -1.239604	 0.805977
H	 -3.313397	 0.915643	 -0.808262
H	 -4.073500	 -0.448134	 -0.008893
H	 -3.306061	 0.809945	 0.942516

12 8 11 15 F
