%nprocshared=4
%mem=2GB
#HF/cc-pVTZ nosymm scf=tight opt=ModRedundant

Mol

0 1
O	 -0.694481	 1.313155	 -0.204815
C	 -0.862519	 0.151932	 -0.046791
C	 -2.171428	 -0.477048	 0.339095
O	 0.085519	 -0.757083	 -0.192238
H	 -2.467997	 -1.191667	 -0.417688
H	 -2.923379	 0.287970	 0.444097
H	 -2.053854	 -1.015120	 1.270901
C	 1.392036	 -0.330828	 -0.560749
C	 1.801721	 -0.883800	 -1.909925
H	 2.090952	 -0.622474	 0.207545
H	 1.330323	 0.746725	 -0.589407
H	 2.771297	 -0.485231	 -2.186541
H	 1.873813	 -1.962356	 -1.879880
H	 1.086781	 -0.600155	 -2.672814

10 8 4 2 F
