%nprocshared=4
%mem=2GB
#HF/cc-pVTZ nosymm scf=tight opt=ModRedundant

Mol

0 1
H	 0.191475	 -2.447021	 0.571808
C	 -0.660349	 -1.778644	 0.710072
N	 -0.537714	 -0.645117	 0.000000
O	 -1.572281	 -2.063950	 1.419790
C	 -1.522613	 0.412524	 0.000000
H	 0.277927	 -0.539339	 -0.550931
H	 -2.150256	 0.356137	 -0.880771
H	 -1.005621	 1.357208	 0.000000
H	 -2.150256	 0.356137	 0.880771

6 3 5 7 F
