%nprocshared=4
%mem=2GB
#HF/cc-pVTZ nosymm scf=tight opt=ModRedundant

Mol

0 1
H	 -2.498963	 -0.741158	 -0.729149
O	 -2.346257	 -0.289210	 0.080372
C	 -1.183935	 0.486039	 -0.009831
C	 0.062853	 -0.375310	 0.027457
H	 -1.178881	 1.094526	 -0.908634
H	 -1.184406	 1.155156	 0.838676
O	 1.172093	 0.457955	 -0.054438
H	 0.052476	 -1.081302	 -0.804627
H	 0.076323	 -0.955658	 0.947560
C	 0.873713	 1.811354	 -0.156915
H	 0.317360	 2.162373	 0.709417
H	 1.806670	 2.352675	 -0.213928
H	 0.290006	 2.022993	 -1.049672

10 7 4 8 F
