%nprocshared=4
%mem=2GB
#HF/cc-pVTZ nosymm scf=tight opt=ModRedundant

Mol

0 1
O	 0.337193	 -1.472268	 -1.481316
C	 1.002990	 -1.340003	 -0.511676
C	 1.599019	 -0.043104	 -0.026776
O	 1.317782	 -2.342573	 0.292610
C	 1.264224	 1.148082	 -0.915733
H	 1.255034	 0.099558	 0.990511
H	 2.672351	 -0.190571	 0.040620
C	 -0.234258	 1.340005	 -1.153550
H	 1.776047	 1.040925	 -1.865799
H	 1.667971	 2.043342	 -0.459108
C	 -1.103749	 1.264859	 0.100541
H	 -0.564421	 0.574885	 -1.849788
H	 -0.402290	 2.292348	 -1.651634
C	 -0.570047	 2.117546	 1.248528
H	 -2.112979	 1.586720	 -0.145896
H	 -1.185658	 0.235778	 0.437912
C	 0.739198	 1.596886	 1.834671
H	 -1.318668	 2.169026	 2.035457
H	 -0.425188	 3.137840	 0.900847
C	 1.264998	 2.452896	 2.982084
H	 0.595966	 0.577533	 2.182699
H	 1.489322	 1.547471	 1.049987
H	 2.194299	 2.056300	 3.374634
H	 0.551837	 2.493424	 3.798704
H	 1.451262	 3.471221	 2.657233
C	 0.824678	 -3.623490	 -0.043565
H	 -0.139967	 -3.792406	 0.411591
H	 1.544729	 -4.329140	 0.337866
H	 0.731980	 -3.727573	 -1.114467

2 4 26 27 F
