%nprocshared=4
%mem=2GB
#HF/cc-pVTZ nosymm scf=tight opt=ModRedundant

Mol

0 1
H	 -1.613087	 1.116484	 4.766829
O	 -0.782476	 1.096963	 5.204474
C	 -0.229961	 -0.191406	 5.140396
C	 0.284415	 -0.562620	 3.757535
H	 0.590686	 -0.196244	 5.845020
H	 -0.951674	 -0.931187	 5.481431
C	 -0.804088	 -0.673181	 2.692271
H	 1.020466	 0.175462	 3.453196
H	 0.805710	 -1.513406	 3.839116
C	 -0.254557	 -1.079381	 1.325577
H	 -1.319652	 0.277511	 2.606366
H	 -1.545927	 -1.403992	 3.009880
C	 -1.311023	 -1.277304	 0.237018
H	 0.466055	 -0.335239	 0.995126
H	 0.299813	 -2.006957	 1.438469
C	 -2.041121	 -0.006551	 -0.194127
H	 -0.826118	 -1.709338	 -0.634039
H	 -2.038098	 -2.013392	 0.572715
C	 -3.489218	 0.042606	 0.286507
H	 -2.022185	 0.066287	 -1.279394
H	 -1.518764	 0.869305	 0.178730
C	 -4.219984	 1.311773	 -0.139038
H	 -4.022855	 -0.824300	 -0.093339
H	 -3.510372	 -0.038577	 1.370031
H	 -4.244251	 1.405725	 -1.219696
H	 -5.244345	 1.313233	 0.215630
H	 -3.732090	 2.196311	 0.257073

10 13 16 20 F
