%nprocshared=1
%mem=2GB
#HF/6-31G* nosymm scf=tight 

Mol

0 1
H	 3.463771	 0.168298	 -0.756243
C	 2.752674	 -0.045734	 0.033351
C	 1.322923	 0.120767	 -0.479465
H	 2.934561	 -1.059086	 0.377456
H	 2.958358	 0.631174	 0.856809
C	 0.306652	 -0.176050	 0.621399
H	 1.144658	 -0.551717	 -1.312180
H	 1.166477	 1.131798	 -0.836680
N	 -1.068537	 -0.011044	 0.085269
H	 0.372515	 -1.192590	 0.973735
H	 0.391664	 0.520566	 1.441230
O	 -1.179439	 0.309845	 -1.057580
O	 -1.970499	 -0.180736	 0.847958

7 3 6 9 F
