%nprocshared=4
%mem=2GB
#HF/6-31G* nosymm scf=tight opt=ModRedundant

Mol

0 1
H	 -2.646374	 -0.642757	 1.268656
C	 -2.083525	 -0.384536	 0.393091
O	 -0.807605	 -0.127164	 0.768327
F	 -2.118945	 -1.383102	 -0.486752
F	 -2.621877	 0.670592	 -0.209486
C	 0.084052	 0.273579	 -0.209957
C	 -0.447247	 1.578756	 -0.788226
Cl	 0.227384	 -0.956975	 -1.475819
H	 1.069357	 0.453957	 0.182997
F	 0.361922	 2.030385	 -1.722793
F	 -0.502997	 2.477680	 0.174201
F	 -1.646808	 1.441804	 -1.298393

9 6 3 2 F
