%nprocshared=4
%mem=2GB
#HF/cc-pVTZ nosymm scf=tight opt=ModRedundant

Mol

0 1
O	 2.868453	 1.353349	 -0.000734
C	 2.841259	 0.166180	 -0.000295
C	 1.542794	 -0.614730	 -0.000853
C	 4.113372	 -0.651103	 0.000743
C	 0.288398	 0.247429	 0.000314
H	 1.557171	 -1.273139	 -0.866508
H	 1.557484	 -1.274998	 0.863344
C	 -0.856197	 -0.383264	 0.788502
H	 -0.022414	 0.424184	 -1.023047
H	 0.526816	 1.221325	 0.412401
C	 -2.120315	 0.471287	 0.797283
H	 -1.088225	 -1.360646	 0.371175
H	 -0.536642	 -0.559485	 1.813243
C	 -3.269837	 -0.152881	 1.583252
H	 -2.440656	 0.647780	 -0.226604
H	 -1.889577	 1.448223	 1.214998
C	 -4.529494	 0.706792	 1.587383
H	 -3.501952	 -1.128936	 1.165665
H	 -2.950950	 -0.328476	 2.607164
H	 -4.893711	 0.871947	 0.578864
H	 -5.325178	 0.235629	 2.152992
H	 -4.338712	 1.678201	 2.031240
H	 4.145311	 -1.294584	 -0.871587
H	 4.970080	 0.004978	 -0.000091
H	 4.145223	 -1.291980	 0.874988

9 5 3 6 F
