%nprocshared=4
%mem=2GB
#HF/cc-pVTZ nosymm scf=tight opt=ModRedundant

Mol

0 1
O	 0.812427	 0.132190	 -0.885804
C	 0.029490	 0.077183	 0.000078
C	 -1.232113	 -0.748027	 0.000015
O	 0.165051	 0.749561	 1.130902
C	 -2.501422	 0.088592	 -0.000052
H	 -1.188777	 -1.400384	 -0.865133
H	 -1.188857	 -1.400312	 0.865225
H	 -2.548170	 0.725504	 -0.873205
H	 -3.371613	 -0.556398	 -0.000040
H	 -2.548215	 0.725571	 0.873047
C	 1.309559	 1.567764	 1.266134
H	 2.210863	 0.976848	 1.197546
H	 1.236478	 2.023447	 2.240217
H	 1.327361	 2.327920	 0.499263

4 2 3 6 F
