%nprocshared=4
%mem=2GB
#HF/cc-pVTZ nosymm scf=tight opt=ModRedundant

Mol

0 1
H	 -3.401682	 -1.036167	 0.000000
O	 -3.113760	 -0.140926	 0.000000
C	 -1.775087	 -0.058754	 0.000000
C	 -1.100906	 1.004015	 -0.588589
C	 -1.071056	 -1.081201	 0.614105
H	 -1.654070	 1.793491	 -1.063104
C	 0.273018	 1.038840	 -0.560058
H	 -1.610303	 -1.891528	 1.061993
C	 0.304495	 -1.031340	 0.634029
H	 0.804916	 1.853240	 -1.010554
C	 0.992889	 0.021839	 0.051469
H	 0.851705	 -1.824028	 1.110185
C	 2.466900	 0.053658	 0.085273
O	 3.139541	 0.909903	 -0.384358
H	 2.932064	 -0.798356	 0.592713

5 3 2 1 F
