%nprocshared=4
%mem=2GB
#HF/cc-pVTZ nosymm scf=tight opt=ModRedundant

Mol

0 1
H	 -3.436473	 1.252944	 -1.023892
O	 -3.458596	 0.315260	 -0.960865
C	 -3.176635	 -0.080824	 0.355601
C	 -1.763371	 0.265266	 0.799691
H	 -3.321825	 -1.153438	 0.379502
H	 -3.895468	 0.357385	 1.043382
C	 -0.853993	 -0.948449	 0.967774
H	 -1.325847	 0.955390	 0.079854
H	 -1.828496	 0.808719	 1.739268
C	 0.568600	 -0.580906	 1.381430
H	 -0.829906	 -1.508320	 0.039400
H	 -1.285418	 -1.612805	 1.712763
C	 1.472197	 -1.800406	 1.552836
H	 0.988865	 0.090558	 0.638864
H	 0.540523	 -0.023633	 2.315515
C	 2.886713	 -1.489466	 2.045084
H	 1.532143	 -2.337504	 0.609023
H	 1.004705	 -2.481750	 2.258415
C	 3.744241	 -0.695148	 1.062817
H	 3.387761	 -2.427633	 2.263190
H	 2.828045	 -0.952072	 2.988050
H	 3.816000	 -1.205836	 0.107765
H	 4.750777	 -0.569764	 1.445448
H	 3.341170	 0.293547	 0.879452

7 4 3 2 F
