%nprocshared=4
%mem=2GB
#HF/cc-pVTZ nosymm scf=tight opt=ModRedundant

Mol

0 1
H	 2.469628	 2.104516	 2.851340
N	 1.638450	 1.552993	 2.827200
C	 1.116707	 1.450723	 1.473396
H	 0.976084	 1.991959	 3.432120
C	 -0.102415	 0.541622	 1.428650
H	 1.898084	 1.032227	 0.847922
H	 0.857721	 2.419590	 1.044235
C	 -0.678115	 0.376691	 0.025731
H	 0.173486	 -0.426042	 1.834742
H	 -0.869465	 0.944318	 2.087401
C	 -1.900706	 -0.535531	 -0.022488
H	 0.089778	 -0.021836	 -0.633413
H	 -0.945259	 1.351985	 -0.374653
C	 -3.220513	 0.226854	 0.028039
H	 -1.865036	 -1.134397	 -0.928236
H	 -1.857948	 -1.236381	 0.806820
H	 -3.309098	 0.911849	 -0.808725
H	 -4.066838	 -0.449485	 -0.008086
H	 -3.301685	 0.809374	 0.939860

12 8 11 15 F
