%nprocshared=1
%mem=2GB
#HF/6-31G* nosymm scf=tight opt=ModRedundant

Mol

0 1
O	 0.399343	 0.249864	 -0.935241
C	 1.122059	 0.121804	 -0.000188
C	 0.983051	 0.837004	 1.321576
O	 2.172624	 -0.688929	 0.000216
C	 -0.211320	 1.784585	 1.375511
H	 0.918520	 0.077786	 2.096287
H	 1.914274	 1.366521	 1.503762
C	 -0.328622	 2.495962	 2.724418
H	 -1.120551	 1.227049	 1.173131
H	 -0.123604	 2.517389	 0.579391
C	 -1.521980	 3.448338	 2.786699
H	 -0.415444	 1.757172	 3.518601
H	 0.585988	 3.050909	 2.923402
H	 -2.455555	 2.917162	 2.625627
H	 -1.582396	 3.939238	 3.752951
H	 -1.446654	 4.220485	 2.026597
C	 3.452279	 -0.082609	 0.000533
H	 3.583069	 0.529321	 -0.880332
H	 4.163299	 -0.894027	 0.001117
H	 3.582335	 0.529955	 0.881077

1 2 4 17 F
