%nprocshared=4
%mem=2GB
#HF/cc-pVTZ nosymm scf=tight opt=ModRedundant

Mol

0 1
O	 0.579920	 -0.208286	 -0.172106
C	 1.704209	 0.119472	 -0.000093
C	 2.177669	 1.529436	 0.243790
O	 2.715427	 -0.733672	 0.000025
C	 1.057354	 2.559531	 0.254838
H	 2.719375	 1.527760	 1.184003
H	 2.913679	 1.757333	 -0.520274
C	 1.571899	 3.974190	 0.503839
H	 0.333254	 2.291754	 1.015922
H	 0.527612	 2.521407	 -0.690260
C	 0.462415	 5.021718	 0.517954
H	 2.104276	 4.004963	 1.451931
H	 2.299961	 4.235297	 -0.261005
C	 0.976555	 6.435542	 0.767300
H	 -0.264847	 4.762445	 1.282168
H	 -0.068953	 4.992994	 -0.429138
H	 1.483535	 6.504961	 1.724058
H	 0.164469	 7.153341	 0.771247
H	 1.680677	 6.737490	 -0.000993
C	 4.020999	 -0.192556	 0.000019
H	 4.182809	 0.412891	 -0.879449
H	 4.692590	 -1.035653	 0.000152
H	 4.182726	 0.413087	 0.879368

1 2 4 20 F
