%nprocshared=4
%mem=2GB
#HF/cc-pVTZ nosymm scf=tight opt=ModRedundant

Mol

0 1
H	 2.764871	 -4.024226	 2.891053
O	 3.296448	 -4.777705	 2.713496
C	 2.794303	 -5.897557	 3.393977
C	 1.504060	 -6.440907	 2.798384
H	 3.567128	 -6.651809	 3.332139
H	 2.651516	 -5.668394	 4.448276
C	 1.533904	 -6.604054	 1.280379
H	 1.283945	 -7.396531	 3.264742
H	 0.698682	 -5.763294	 3.071525
C	 1.595232	 -5.266991	 0.543264
H	 0.653914	 -7.152510	 0.961291
H	 2.396657	 -7.205868	 0.999732
C	 1.701674	 -5.372571	 -0.979160
H	 0.719543	 -4.676525	 0.801615
H	 2.453343	 -4.710212	 0.909476
C	 3.009841	 -5.968591	 -1.496077
H	 0.878268	 -5.984650	 -1.336776
H	 1.557175	 -4.387739	 -1.417772
C	 3.483501	 -7.168232	 -0.679428
H	 3.781425	 -5.201776	 -1.485084
H	 2.898094	 -6.272898	 -2.532375
C	 4.787405	 -7.768073	 -1.195101
H	 3.610487	 -6.868801	 0.357294
H	 2.710250	 -7.931867	 -0.682378
H	 5.589371	 -7.037552	 -1.174452
H	 5.096164	 -8.614511	 -0.592342
H	 4.682460	 -8.112344	 -2.218729

10 13 16 20 F
