%nprocshared=4
%mem=2GB
#HF/cc-pVTZ nosymm scf=tight opt=ModRedundant

Mol

0 1
O	 0.395927	 1.296676	 -0.000076
C	 0.503051	 0.114301	 -0.000074
C	 -0.701422	 -0.805636	 -0.000109
C	 1.858118	 -0.556123	 0.000212
C	 -0.517264	 -2.068140	 0.827086
H	 -1.552964	 -0.230582	 0.354326
H	 -0.927450	 -1.049565	 -1.034928
H	 -0.315860	 -1.827619	 1.862371
H	 -1.410995	 -2.679138	 0.784883
H	 0.315194	 -2.653876	 0.460811
H	 1.961106	 -1.191101	 -0.872843
H	 2.636688	 0.191085	 -0.000109
H	 1.961070	 -1.190284	 0.873873

6 3 2 1 F
