%nprocshared=4
%mem=2GB
#HF/cc-pVTZ nosymm scf=tight opt=ModRedundant

Mol

0 1
O	 -1.168761	 -4.330436	 -0.654974
C	 -0.494713	 -3.858143	 -1.511729
C	 -0.067436	 -2.404646	 -1.458525
C	 -0.013418	 -4.679678	 -2.683993
C	 1.182643	 -2.229815	 -0.586987
H	 -0.887078	 -1.837420	 -1.035970
H	 0.125405	 -2.032253	 -2.459025
C	 1.630207	 -0.772146	 -0.501001
H	 0.965739	 -2.618918	 0.399816
H	 1.996060	 -2.829460	 -0.988330
C	 2.907848	 -0.545876	 0.309149
H	 0.825914	 -0.176646	 -0.076183
H	 1.788220	 -0.395595	 -1.507899
C	 3.373802	 0.906639	 0.372125
H	 3.699140	 -1.146831	 -0.127906
H	 2.764321	 -0.923458	 1.318191
H	 3.519798	 1.311927	 -0.623875
H	 4.316899	 0.983758	 0.900700
H	 2.661122	 1.540651	 0.885346
H	 -0.494914	 -4.325084	 -3.589765
H	 -0.253633	 -5.720762	 -2.532298
H	 1.055403	 -4.560595	 -2.821948

12 8 11 15 F
