%nprocshared=4
%mem=2GB
#HF/cc-pVTZ nosymm scf=tight opt=ModRedundant

Mol

0 1
H	 -2.578849	 -0.537770	 -0.255961
N	 -1.838933	 0.131625	 -0.253462
C	 -0.561396	 -0.500007	 0.035200
H	 -2.062818	 0.815784	 0.438737
C	 0.575129	 0.507849	 -0.048832
H	 -0.401951	 -1.279409	 -0.702585
H	 -0.537741	 -0.984838	 1.012336
C	 1.951750	 -0.141983	 0.035101
H	 0.478254	 1.061643	 -0.975981
H	 0.467676	 1.231891	 0.755499
H	 2.101550	 -0.848142	 -0.774949
H	 2.738260	 0.600794	 -0.026526
H	 2.078939	 -0.679792	 0.968824

6 3 5 9 F
