%nprocshared=4
%mem=2GB
#HF/6-31G* nosymm scf=tight opt=ModRedundant

Mol

0 1
H	 -3.299638	 1.685597	 0.620708
C	 -2.849277	 0.722531	 0.763323
C	 -1.767049	 0.400619	 0.093132
H	 -3.302666	 0.041697	 1.458890
O	 -1.180634	 -0.819263	 0.215062
H	 -1.293524	 1.070634	 -0.602604
C	 0.051604	 -1.018856	 -0.387932
C	 1.043764	 0.054862	 -0.001873
H	 -0.017620	 -1.041351	 -1.469781
H	 0.437898	 -1.966374	 -0.042284
F	 2.212596	 -0.199467	 -0.571921
F	 0.652529	 1.252447	 -0.405055
F	 1.230877	 0.110694	 1.300533

3 5 7 9 F
