%nprocshared=4
%mem=2GB
#HF/cc-pVTZ nosymm scf=tight opt=ModRedundant

Mol

0 1
O	 2.868453	 1.353349	 -0.000734
C	 2.841259	 0.166180	 -0.000295
C	 1.542794	 -0.614730	 -0.000853
C	 4.113372	 -0.651103	 0.000743
C	 0.288398	 0.247429	 0.000314
H	 1.557171	 -1.273139	 -0.866508
H	 1.557484	 -1.274998	 0.863344
C	 -0.414239	 0.258994	 1.355039
H	 -0.390918	 -0.112321	 -0.764032
H	 0.552057	 1.258995	 -0.286654
C	 -1.674022	 1.119845	 1.369608
H	 -0.673512	 -0.758975	 1.637511
H	 0.273607	 0.618973	 2.116973
C	 -2.382741	 1.136258	 2.720972
H	 -2.362315	 0.760632	 0.608469
H	 -1.415753	 2.137784	 1.088140
C	 -3.640651	 1.998469	 2.727643
H	 -2.642334	 0.119277	 3.002573
H	 -1.695882	 1.496398	 3.482184
H	 -4.362689	 1.642632	 2.000262
H	 -4.119074	 1.988353	 3.700284
H	 -3.409217	 3.029955	 2.483680
H	 4.145311	 -1.294584	 -0.871587
H	 4.970080	 0.004978	 -0.000091
H	 4.145223	 -1.291980	 0.874988

9 5 3 6 F
