%nprocshared=4
%mem=2GB
#HF/6-31G* nosymm scf=tight opt=ModRedundant

Mol

0 1
O	 -0.545567	 0.050263	 -0.577867
C	 0.486307	 0.169203	 0.000779
C	 1.608116	 -0.841643	 0.000302
O	 0.791675	 1.227012	 0.739291
C	 2.990107	 -0.200498	 -0.000684
H	 1.468623	 -1.481519	 -0.865924
H	 1.469683	 -1.481289	 0.866878
H	 3.129736	 0.423364	 -0.875135
H	 3.757882	 -0.966877	 -0.001197
H	 3.130964	 0.423383	 0.873533
C	 -0.177446	 2.265986	 0.832778
C	 0.400200	 3.346720	 1.721963
H	 -1.092347	 1.858939	 1.241255
H	 -0.392883	 2.637585	 -0.159740
H	 0.615527	 2.957316	 2.710475
H	 -0.309182	 4.161965	 1.820961
H	 1.318807	 3.740342	 1.301867

4 2 3 6 F
