%nprocshared=4
%mem=2GB
#HF/cc-pVTZ nosymm scf=tight opt=ModRedundant

Mol

0 1
H	 -2.266619	 1.169943	 0.000098
O	 -1.438073	 1.611259	 0.000041
C	 -0.408657	 0.734701	 0.000005
C	 -0.684558	 -0.552654	 0.421911
C	 0.871837	 1.095979	 -0.402394
H	 -1.685110	 -0.792043	 0.724431
C	 0.318027	 -1.498772	 0.447467
C	 1.859555	 0.125078	 -0.366461
C	 1.171295	 2.501247	 -0.862556
H	 0.096429	 -2.496172	 0.776203
C	 1.598860	 -1.164330	 0.052444
H	 2.854456	 0.388466	 -0.674304
H	 0.971165	 3.231716	 -0.083658
H	 2.212065	 2.599792	 -1.135556
H	 0.581757	 2.774531	 -1.733237
H	 2.383778	 -1.895066	 0.069693

4 3 2 1 F
