%nprocshared=4
%mem=2GB
#HF/cc-pVTZ nosymm scf=tight opt=ModRedundant

Mol

0 1
H	 0.591490	 4.763925	 0.159957
N	 -0.203802	 4.167624	 0.073047
C	 0.189867	 2.767492	 0.062346
H	 -0.665425	 4.414477	 -0.777434
C	 -1.030804	 1.860695	 0.013280
H	 0.744087	 2.572176	 0.974266
H	 0.854270	 2.519936	 -0.766653
C	 -0.678115	 0.376691	 0.025731
H	 -1.671797	 2.098816	 0.855795
H	 -1.604692	 2.086728	 -0.883406
C	 -1.900706	 -0.535531	 -0.022488
H	 -0.101047	 0.151812	 0.919810
H	 -0.030711	 0.149723	 -0.818204
C	 -3.220513	 0.226854	 0.028039
H	 -1.865036	 -1.134397	 -0.928236
H	 -1.857948	 -1.236381	 0.806820
H	 -3.309098	 0.911849	 -0.808725
H	 -4.066838	 -0.449485	 -0.008086
H	 -3.301685	 0.809374	 0.939860

12 8 11 15 F
