%nprocshared=4
%mem=2GB
#HF/6-31G* nosymm scf=tight opt=ModRedundant

Mol

0 1
O	 -2.042549	 -1.228399	 -0.269030
C	 -1.653912	 -0.146171	 0.050137
C	 -0.332303	 0.024011	 0.778412
C	 -2.438579	 1.106236	 -0.272369
C	 0.845713	 -0.001731	 -0.208243
H	 -0.323783	 0.953829	 1.340327
H	 -0.235459	 -0.796807	 1.480410
C	 1.544105	 1.353695	 -0.326994
H	 0.495665	 -0.311884	 -1.191276
H	 1.556303	 -0.754086	 0.120641
C	 2.721549	 1.328719	 -1.300754
H	 0.824888	 2.104210	 -0.647742
H	 1.893202	 1.663475	 0.655216
H	 2.398273	 1.054895	 -2.301037
H	 3.473134	 0.609876	 -0.987979
H	 3.199048	 2.301456	 -1.362417
H	 -3.277823	 0.863061	 -0.908988
H	 -1.806773	 1.843019	 -0.759671
H	 -2.802853	 1.554979	 0.648059

9 5 3 2 F
