%nprocshared=4
%mem=2GB
#HF/cc-pVTZ nosymm scf=tight opt=ModRedundant

Mol

0 1
H	 -2.698799	 -0.000846	 0.036018
C	 -1.694291	 -0.000483	 0.434279
O	 -0.828718	 -0.000608	 -0.655022
H	 -1.576855	 0.881100	 1.056504
H	 -1.576401	 -0.881658	 1.057001
C	 0.557892	 0.000078	 -0.420099
C	 0.945170	 -0.824467	 0.802363
C	 1.361610	 -0.385631	 -1.656835
H	 0.770848	 1.038475	 -0.198738
H	 0.330270	 -0.551736	 1.651229
H	 1.981480	 -0.637106	 1.058689
H	 0.839302	 -1.889053	 0.629070
H	 1.035574	 0.191477	 -2.513393
H	 2.413089	 -0.182427	 -1.489886
H	 1.266700	 -1.438534	 -1.895433

9 6 3 2 F
