%nprocshared=4
%mem=2GB
#HF/cc-pVTZ nosymm scf=tight opt=ModRedundant

Mol

0 1
H	 -3.436473	 1.252944	 -1.023892
O	 -3.458596	 0.315260	 -0.960865
C	 -3.176635	 -0.080824	 0.355601
C	 -1.763371	 0.265266	 0.799691
H	 -3.321825	 -1.153438	 0.379502
H	 -3.895468	 0.357385	 1.043382
C	 -0.673390	 -0.426948	 -0.013392
H	 -1.631049	 1.344913	 0.747560
H	 -1.664587	 -0.001624	 1.849167
C	 -1.032694	 -1.857933	 -0.404741
H	 0.250790	 -0.425919	 0.553884
H	 -0.479722	 0.154302	 -0.911806
C	 -2.437106	 -1.979055	 -0.992964
H	 -0.299396	 -2.222725	 -1.117545
H	 -0.955208	 -2.501598	 0.469072
C	 -3.573734	 -1.695963	 -0.009204
H	 -2.565882	 -2.974785	 -1.411040
H	 -2.524316	 -1.288157	 -1.827034
C	 -3.703522	 -2.709669	 1.125124
H	 -4.507807	 -1.672479	 -0.562135
H	 -3.445717	 -0.701240	 0.409793
H	 -3.826835	 -3.715353	 0.735932
H	 -4.566620	 -2.487472	 1.742321
H	 -2.833854	 -2.709603	 1.771098

11 7 4 3 F
