%nprocshared=4
%mem=2GB
#HF/6-31G* nosymm scf=tight opt=ModRedundant

Mol

0 1
H	 -0.756394	 4.381235	 5.845212
C	 -1.421942	 3.533107	 5.717746
C	 -1.503242	 3.110247	 4.251542
H	 -1.047461	 2.722923	 6.336379
H	 -2.398214	 3.818217	 6.100375
C	 -2.439929	 1.919587	 4.035299
H	 -0.509558	 2.858085	 3.895720
H	 -1.847734	 3.952233	 3.653146
C	 -2.555732	 1.484829	 2.574189
H	 -2.100186	 1.077306	 4.627566
H	 -3.433259	 2.179232	 4.394358
C	 -1.309734	 0.809355	 2.020596
H	 -3.369566	 0.769296	 2.467148
H	 -2.819183	 2.326775	 1.937874
C	 -1.181045	 0.701995	 0.511084
O	 -0.468659	 0.361332	 2.740509
C	 -2.285934	 -0.139295	 -0.145128
H	 -0.209233	 0.269288	 0.305998
H	 -1.194903	 1.705788	 0.090498
C	 -3.651768	 0.085446	 0.506485
H	 -2.346596	 0.110469	 -1.202272
H	 -2.034737	 -1.195320	 -0.088721
C	 -4.759797	 -0.746382	 -0.137905
H	 -3.908762	 1.140117	 0.445781
H	 -3.588286	 -0.154158	 1.565709
H	 -4.868882	 -0.505166	 -1.191300
H	 -4.548009	 -1.809175	 -0.062213
H	 -5.715422	 -0.564821	 0.343442

12 15 17 21 F
