%nprocshared=1
%mem=2GB
#HF/6-31G* nosymm scf=tight 

Mol

0 1
H	 0.283338	 1.701201	 -1.704739
C	 0.531965	 1.851908	 -0.647255
C	 0.692068	 0.589600	 0.160137
O	 0.656263	 2.951558	 -0.214301
C	 -0.558097	 -0.297372	 0.091132
H	 0.924209	 0.866813	 1.181775
H	 1.544302	 0.043584	 -0.242847
C	 -1.850991	 0.512573	 -0.019058
H	 -0.476753	 -0.965681	 -0.762987
H	 -0.604799	 -0.930658	 0.975228
C	 -3.096943	 -0.368295	 -0.099594
H	 -1.800724	 1.150330	 -0.898172
H	 -1.931651	 1.177355	 0.838044
H	 -3.060452	 -1.020287	 -0.967456
H	 -3.996858	 0.233488	 -0.175704
H	 -3.191959	 -0.995686	 0.782074

9 5 8 12 F
4 2 3 6 F
