%nprocshared=1
%mem=2GB
#HF/6-31G* nosymm scf=tight 

Mol

0 1
H	 3.729471	 -0.928294	 -0.070608
O	 2.826016	 -1.159218	 0.122261
C	 2.077727	 -0.067559	 -0.035091
C	 0.624473	 -0.343591	 0.253101
O	 2.542965	 0.974826	 -0.363729
C	 -0.265902	 0.883932	 0.072916
H	 0.324016	 -1.163849	 -0.390541
H	 0.565024	 -0.726111	 1.268924
C	 -1.728698	 0.646073	 0.462102
H	 -0.209144	 1.219470	 -0.958188
H	 0.135059	 1.692851	 0.673903
C	 -2.314982	 -0.686765	 -0.011997
H	 -2.324377	 1.454510	 0.044541
H	 -1.834009	 0.721789	 1.543459
C	 -3.802180	 -0.823031	 0.313813
H	 -2.170964	 -0.779250	 -1.086589
H	 -1.777849	 -1.515777	 0.441446
H	 -4.194321	 -1.775083	 -0.029898
H	 -4.380988	 -0.035697	 -0.160440
H	 -3.976038	 -0.760882	 1.384396

16 12 9 6 F
7 4 6 10 F
5 3 4 7 F
1 2 3 5 F
