%nprocshared=4
%mem=2GB
#HF/cc-pVTZ nosymm scf=tight opt=ModRedundant

Mol

0 1
H	 3.889604	 0.356866	 -0.089510
N	 3.091268	 -0.241216	 -0.065538
C	 1.860978	 0.530248	 0.016256
H	 3.192566	 -0.835836	 0.730398
C	 0.644130	 -0.381765	 -0.031064
H	 1.835721	 1.204666	 -0.833114
H	 1.808789	 1.151975	 0.911067
C	 -0.678115	 0.376691	 0.025731
H	 0.693998	 -0.977147	 -0.936845
H	 0.693309	 -1.082142	 0.800523
C	 -1.269121	 0.456728	 1.430547
H	 -1.396137	 -0.102497	 -0.635916
H	 -0.536307	 1.384007	 -0.359077
C	 -2.594037	 1.210133	 1.482048
H	 -1.411124	 -0.548645	 1.817008
H	 -0.555097	 0.938624	 2.092904
H	 -3.340555	 0.732334	 0.856222
H	 -2.985568	 1.248313	 2.492123
H	 -2.477771	 2.231207	 1.133872

12 8 5 9 F
