%nprocshared=4
%mem=2GB
#HF/cc-pVTZ nosymm scf=tight opt=ModRedundant

Mol

0 1
H	 3.845184	 3.654410	 -2.349399
C	 3.891084	 2.718527	 -1.804529
C	 2.622192	 2.492270	 -0.989640
H	 4.036183	 1.922283	 -2.526441
H	 4.768112	 2.750108	 -1.166073
C	 2.655658	 1.186288	 -0.198903
H	 1.765931	 2.490560	 -1.654284
H	 2.484112	 3.323630	 -0.302183
C	 1.400836	 0.935986	 0.631553
H	 2.800643	 0.355190	 -0.877934
H	 3.510451	 1.199950	 0.471116
C	 0.166485	 0.574257	 -0.177158
H	 1.569270	 0.105872	 1.312954
H	 1.174059	 1.791471	 1.261026
C	 -1.180025	 0.697761	 0.509157
O	 0.246181	 0.188383	 -1.298775
C	 -2.285431	 -0.137488	 -0.145671
H	 -1.447360	 1.745713	 0.496200
H	 -1.065514	 0.394096	 1.546399
C	 -3.646545	 0.082747	 0.508954
H	 -2.348635	 0.118247	 -1.199806
H	 -2.034895	 -1.192387	 -0.096473
C	 -4.757412	 -0.737227	 -0.138149
H	 -3.900211	 1.137405	 0.459735
H	 -3.580878	 -0.166775	 1.564416
H	 -4.867876	 -0.486707	 -1.187777
H	 -4.549650	 -1.800049	 -0.072540
H	 -5.709585	 -0.556397	 0.346597

16 12 15 17 F
