%nprocshared=1
%mem=2GB
#HF/6-31G* nosymm scf=tight opt=ModRedundant

Mol

0 1
O	 0.625848	 1.349995	 -0.000749
C	 0.486307	 0.169203	 0.000779
C	 1.608116	 -0.841643	 0.000302
O	 -0.698257	 -0.426125	 0.001050
C	 2.990107	 -0.200498	 -0.000684
H	 1.468623	 -1.481519	 -0.865924
H	 1.469683	 -1.481289	 0.866878
H	 3.129736	 0.423364	 -0.875135
H	 3.757882	 -0.966877	 -0.001197
H	 3.130964	 0.423383	 0.873533
C	 -1.569902	 -0.157223	 -1.092260
C	 -2.841559	 -0.946463	 -0.863567
H	 -1.080468	 -0.445673	 -2.012496
H	 -1.761848	 0.906146	 -1.136922
H	 -2.631645	 -2.008921	 -0.815842
H	 -3.537278	 -0.770021	 -1.677503
H	 -3.316876	 -0.649732	 0.064486

11 4 2 3 F
