%nprocshared=4
%mem=2GB
#HF/cc-pVTZ nosymm scf=tight opt=ModRedundant

Mol

0 1
H	 -3.162190	 0.493205	 -0.000107
C	 -2.363908	 -0.234727	 0.000005
O	 -1.158738	 0.454634	 -0.000087
H	 -2.464314	 -0.863616	 -0.882153
H	 -2.464327	 -0.863359	 0.882345
C	 -0.966687	 1.280437	 1.105120
C	 0.376795	 1.971066	 0.984787
H	 -1.006112	 0.692555	 2.022441
H	 -1.765591	 2.020102	 1.162482
C	 0.662970	 2.897119	 2.161596
H	 1.149045	 1.213548	 0.909140
H	 0.395576	 2.530575	 0.056052
H	 0.672887	 2.352571	 3.099923
H	 1.627685	 3.376609	 2.050093
H	 -0.085437	 3.678565	 2.240955

6 3 2 4 F
