%nprocshared=1
%mem=2GB
#HF/6-31G* nosymm scf=tight opt=ModRedundant

Mol

0 1
O	 3.225979	 0.970355	 -0.599647
C	 2.701189	 0.057885	 -0.047330
C	 1.245376	 -0.013843	 0.345420
O	 3.347903	 -1.046386	 0.304773
C	 0.455112	 1.231400	 -0.050772
H	 0.838542	 -0.913825	 -0.103701
H	 1.208210	 -0.175333	 1.419774
C	 -0.998893	 1.219485	 0.433193
H	 0.482531	 1.345121	 -1.130325
H	 0.957290	 2.103070	 0.354729
C	 -1.213258	 0.600703	 1.817486
H	 -1.590334	 0.664012	 -0.290943
H	 -1.391384	 2.235321	 0.427052
C	 -2.690118	 0.512353	 2.207459
H	 -0.776557	 -0.396696	 1.834955
H	 -0.684880	 1.178795	 2.572204
C	 -2.916085	 -0.099625	 3.591132
H	 -3.224043	 -0.076446	 1.463500
H	 -3.130058	 1.508036	 2.179762
C	 -4.393707	 -0.187772	 3.971348
H	 -2.476193	 -1.094236	 3.620871
H	 -2.386723	 0.490067	 4.336666
H	 -4.521343	 -0.625378	 4.956649
H	 -4.944746	 -0.800555	 3.263501
H	 -4.854633	 0.795923	 3.984180
C	 4.728119	 -1.109107	 -0.004993
H	 4.882018	 -1.033965	 -1.071845
H	 5.068212	 -2.067527	 0.355250
H	 5.265056	 -0.311663	 0.488280

11 8 5 9 F
