%nprocshared=4
%mem=2GB
#HF/6-31G* nosymm scf=tight opt=ModRedundant

Mol

0 1
H	 0.804159	 -0.877737	 1.568792
O	 1.210317	 -0.606189	 0.756911
C	 0.679396	 0.628361	 0.372239
C	 -0.793441	 0.596080	 0.058728
H	 1.232542	 0.934205	 -0.508494
H	 0.865778	 1.384197	 1.134472
C	 -1.530462	 -0.493172	 -0.025500
H	 -1.244701	 1.562167	 -0.107175
H	 -1.092586	 -1.461565	 -0.186463
H	 -2.602122	 -0.450675	 0.050101

3 4 7 9 F
