%nprocshared=1
%mem=2GB
#HF/6-31G* nosymm scf=tight opt=ModRedundant

Mol

0 1
O	 2.862325	 1.357334	 0.000267
C	 2.843464	 0.164689	 -0.000222
C	 1.546494	 -0.624492	 -0.000609
C	 4.124123	 -0.644674	 -0.000428
C	 0.291004	 0.242674	 0.000989
H	 1.557904	 -1.283758	 -0.867573
H	 1.558622	 -1.285963	 0.864672
C	 -0.994322	 -0.586602	 0.000262
H	 0.309117	 0.896430	 -0.865270
H	 0.309661	 0.894078	 0.869017
C	 -2.259874	 0.272531	 0.000494
H	 -1.004862	 -1.240012	 -0.870939
H	 -1.005220	 -1.241071	 0.870675
C	 -1.995852	 1.739381	 -0.343972
H	 -2.734492	 0.213070	 0.978360
H	 -2.974510	 -0.140070	 -0.709473
C	 -3.264751	 2.591187	 -0.341491
H	 -1.282537	 2.153249	 0.365759
H	 -1.522798	 1.800206	 -1.321918
H	 -3.743527	 2.578362	 0.633578
H	 -3.045305	 3.625377	 -0.588460
H	 -3.985037	 2.223541	 -1.066866
H	 4.165367	 -1.288615	 -0.874074
H	 4.976217	 0.020734	 -0.001915
H	 4.166763	 -1.286207	 0.874930

15 11 8 12 F
