%nprocshared=4
%mem=2GB
#HF/cc-pVTZ nosymm scf=tight opt=ModRedundant

Mol

0 1
O	 1.216069	 1.304886	 0.000821
C	 1.121787	 0.124983	 0.000110
C	 -0.170912	 -0.649867	 -0.000147
O	 2.167739	 -0.685178	 -0.000678
C	 -1.413045	 0.229353	 0.001137
H	 -0.152877	 -1.303435	 -0.866175
H	 -0.152278	 -1.305116	 0.864586
C	 -2.075910	 0.300914	 -1.371378
H	 -1.145630	 1.226542	 0.332260
H	 -2.119559	 -0.149885	 0.730905
C	 -3.320684	 1.181435	 -1.381988
H	 -1.362163	 0.678418	 -2.098905
H	 -2.341420	 -0.701139	 -1.697922
H	 -3.081584	 2.199236	 -1.093030
H	 -3.769717	 1.213719	 -2.367890
H	 -4.067993	 0.809630	 -0.689260
C	 3.449556	 -0.089977	 -0.000570
H	 3.585694	 0.522473	 -0.879546
H	 4.155805	 -0.904274	 -0.001389
H	 3.586173	 0.521118	 0.879272

9 5 3 6 F
