%nprocshared=4
%mem=2GB
#HF/cc-pVTZ nosymm scf=tight opt=ModRedundant

Mol

0 1
H	 -2.644180	 -0.653737	 1.272255
C	 -2.092774	 -0.380414	 0.391915
O	 -0.808934	 -0.154049	 0.752536
F	 -2.163230	 -1.351640	 -0.507133
F	 -2.627232	 0.691260	 -0.169301
C	 0.085006	 0.250800	 -0.215074
C	 1.279022	 0.879101	 0.499657
Cl	 -0.652724	 1.427691	 -1.317897
H	 0.445743	 -0.567608	 -0.813174
F	 2.176386	 1.273667	 -0.367568
F	 1.834872	 -0.021545	 1.275017
F	 0.933805	 1.897856	 1.238043

9 6 3 2 F
