%nprocshared=1
%mem=2GB
#HF/6-31G* nosymm scf=tight opt=ModRedundant

Mol

0 1
H	 -4.236494	 0.538104	 0.039757
O	 -3.517110	 -0.026191	 -0.205115
C	 -2.306886	 0.532354	 0.237577
C	 -1.177863	 -0.397191	 -0.171080
H	 -2.156308	 1.517575	 -0.201710
H	 -2.315015	 0.655684	 1.319734
C	 0.198102	 0.111031	 0.262842
H	 -1.208843	 -0.518759	 -1.250427
H	 -1.368741	 -1.376554	 0.258909
C	 1.331804	 -0.827780	 -0.158768
H	 0.361943	 1.100838	 -0.156218
H	 0.217265	 0.229072	 1.345532
C	 2.723619	 -0.410569	 0.329459
H	 1.342964	 -0.912588	 -1.244120
H	 1.116806	 -1.824343	 0.220779
C	 3.514351	 0.446911	 -0.660393
H	 3.295548	 -1.309597	 0.545636
H	 2.628776	 0.122054	 1.273643
H	 3.614321	 -0.055635	 -1.618773
H	 3.039146	 1.406018	 -0.837794
H	 4.514204	 0.644249	 -0.286086

16 13 10 14 F
