%nprocshared=4
%mem=2GB
#HF/cc-pVTZ nosymm scf=tight opt=ModRedundant

Mol

0 1
H	 -2.318960	 -0.405926	 2.418269
C	 -2.150884	 -1.441934	 2.133098
O	 -0.958172	 -1.590832	 1.438255
H	 -2.089307	 -2.043247	 3.028374
H	 -3.001892	 -1.778722	 1.543822
C	 -0.894676	 -0.876215	 0.247907
C	 0.474637	 -1.027342	 -0.365678
H	 -1.639600	 -1.247942	 -0.455569
H	 -1.094300	 0.179016	 0.421309
O	 1.401606	 -0.295166	 0.366636
H	 0.744061	 -2.081154	 -0.383662
H	 0.441207	 -0.671446	 -1.395334
C	 2.714315	 -0.441627	 -0.061017
H	 2.765292	 -0.641548	 -1.128869
H	 3.305661	 0.447341	 0.150952
H	 3.143725	 -1.278506	 0.470147

7 10 13 14 F
