%nprocshared=4
%mem=2GB
#HF/cc-pVTZ nosymm scf=tight opt=ModRedundant

Mol

0 1
O	 -2.736441	 -0.261356	 0.590255
C	 -1.808104	 -0.528254	 1.281910
C	 -0.568258	 -1.184672	 0.707501
C	 -1.804398	 -0.212798	 2.758813
C	 0.376695	 -0.140025	 0.100361
H	 -0.889624	 -1.874751	 -0.062321
H	 -0.050229	 -1.748031	 1.476356
C	 1.630207	 -0.772146	 -0.501001
H	 -0.168401	 0.413253	 -0.653948
H	 0.669900	 0.576611	 0.863750
C	 2.907848	 -0.545876	 0.309149
H	 1.772784	 -0.391628	 -1.509394
H	 1.468529	 -1.842059	 -0.599744
C	 3.373802	 0.906639	 0.372125
H	 3.699140	 -1.146831	 -0.127906
H	 2.764321	 -0.923458	 1.318191
H	 3.519798	 1.311927	 -0.623875
H	 4.316899	 0.983758	 0.900700
H	 2.661122	 1.540651	 0.885346
H	 -1.823844	 -1.140519	 3.321800
H	 -2.667957	 0.381766	 3.014407
H	 -0.896522	 0.311034	 3.036215

3 5 8 12 F
