%nprocshared=4
%mem=2GB
#HF/cc-pVTZ nosymm scf=tight opt=ModRedundant

Mol

0 1
O	 0.623971	 1.347241	 -0.000777
C	 0.485107	 0.171416	 -0.000134
C	 1.606966	 -0.836201	 0.000174
O	 -0.695554	 -0.422406	 0.000602
C	 2.988788	 -0.202529	 -0.000115
H	 1.465110	 -1.474645	 -0.864821
H	 1.465209	 -1.474077	 0.865596
H	 3.131767	 0.419673	 -0.873407
H	 3.750876	 -0.972315	 0.000098
H	 3.131883	 0.420264	 0.872742
C	 -1.818451	 0.334282	 -0.429297
C	 -3.036203	 -0.555470	 -0.340355
H	 -1.648485	 0.674397	 -1.441117
H	 -1.917903	 1.207282	 0.200229
H	 -2.924771	 -1.426464	 -0.973857
H	 -3.913743	 -0.007344	 -0.662402
H	 -3.195779	 -0.890499	 0.676828

11 4 2 3 F
