%nprocshared=1
%mem=2GB
#HF/6-31G* nosymm scf=tight 

Mol

0 1
O	 -1.276010	 1.052711	 -0.768302
C	 -1.204840	 0.067374	 -0.106123
C	 -2.388195	 -0.672128	 0.458071
O	 -0.067104	 -0.527208	 0.221609
H	 -2.388023	 -1.694060	 0.097175
H	 -3.300579	 -0.174919	 0.164318
H	 -2.315377	 -0.706351	 1.539059
C	 1.172197	 0.142491	 -0.049618
C	 2.217459	 -0.951225	 -0.179232
C	 1.477887	 1.129265	 1.066392
H	 1.065828	 0.670903	 -0.985552
H	 1.953998	 -1.640476	 -0.973441
H	 3.185434	 -0.517860	 -0.408470
H	 2.302738	 -1.511678	 0.745579
H	 2.426114	 1.622863	 0.878664
H	 0.708680	 1.888459	 1.128998
H	 1.543101	 0.614946	 2.019928

11 8 4 2 F
