%nprocshared=4
%mem=2GB
#HF/cc-pVTZ nosymm scf=tight opt=ModRedundant

Mol

0 1
H	 -3.436473	 1.252944	 -1.023892
O	 -3.458596	 0.315260	 -0.960865
C	 -3.176635	 -0.080824	 0.355601
C	 -1.763371	 0.265266	 0.799691
H	 -3.321825	 -1.153438	 0.379502
H	 -3.895468	 0.357385	 1.043382
C	 -0.673390	 -0.426948	 -0.013392
H	 -1.631049	 1.344913	 0.747560
H	 -1.664587	 -0.001624	 1.849167
C	 0.634187	 0.359331	 -0.057854
H	 -1.032185	 -0.593905	 -1.022998
H	 -0.487637	 -1.411081	 0.410264
C	 1.082080	 0.847295	 1.318493
H	 1.405444	 -0.264629	 -0.499131
H	 0.518585	 1.215269	 -0.719567
C	 0.176291	 1.904049	 1.953052
H	 2.093969	 1.239639	 1.247809
H	 1.135767	 -0.006513	 1.988380
C	 0.150841	 3.244700	 1.222881
H	 0.507067	 2.070988	 2.973589
H	 -0.835501	 1.513260	 2.023624
H	 1.150659	 3.657215	 1.131930
H	 -0.454438	 3.964589	 1.761991
H	 -0.262026	 3.155837	 0.225259

11 7 4 3 F
