%nprocshared=4
%mem=2GB
#HF/cc-pVTZ nosymm scf=tight opt=ModRedundant

Mol

0 1
H	 1.991773	 0.212700	 0.461915
C	 1.153276	 0.234259	 -0.218650
O	 0.000000	 0.000000	 0.518769
H	 1.123561	 1.206122	 -0.706967
H	 1.300979	 -0.528381	 -0.980503
C	 -1.165153	 0.000000	 -0.236961
H	 -1.229451	 0.882440	 -0.870223
H	 -2.002557	 0.000000	 0.445289
H	 -1.229451	 -0.882440	 -0.870223

2 3 6 7 F
