%nprocshared=4
%mem=2GB
#HF/cc-pVTZ nosymm scf=tight opt=ModRedundant

Mol

0 1
H	 3.256127	 1.082763	 2.239536
N	 2.430880	 0.521889	 2.241911
C	 1.520047	 0.925543	 1.182238
H	 2.004369	 0.629336	 3.138511
C	 0.301959	 0.015068	 1.137260
H	 2.054635	 0.854498	 0.240922
H	 1.190626	 1.961086	 1.277561
C	 -0.678115	 0.376691	 0.025731
H	 0.640570	 -1.008842	 1.017442
H	 -0.209694	 0.059574	 2.096798
C	 -1.900706	 -0.535531	 -0.022488
H	 -0.165576	 0.336219	 -0.932716
H	 -1.006294	 1.406003	 0.150981
C	 -3.220513	 0.226854	 0.028039
H	 -1.865036	 -1.134397	 -0.928236
H	 -1.857948	 -1.236381	 0.806820
H	 -3.309098	 0.911849	 -0.808725
H	 -4.066838	 -0.449485	 -0.008086
H	 -3.301685	 0.809374	 0.939860

12 8 11 15 F
