%nprocshared=4
%mem=2GB
#HF/cc-pVTZ nosymm scf=tight opt=ModRedundant

Mol

0 1
O	 -2.374409	 1.338660	 -0.336961
C	 -2.104891	 0.204655	 -0.107126
C	 -0.881910	 -0.448129	 -0.720509
C	 -2.949910	 -0.638219	 0.818225
C	 -1.241864	 -1.789822	 -1.370998
H	 -0.164107	 -0.610410	 0.073554
H	 -0.433376	 0.210249	 -1.456865
C	 -0.026430	 -2.480612	 -1.985842
H	 -1.696474	 -2.421140	 -0.618007
H	 -1.991519	 -1.633482	 -2.142927
C	 -0.336902	 -3.797083	 -2.700280
H	 0.712797	 -2.659732	 -1.209030
H	 0.437763	 -1.802666	 -2.696839
C	 -0.818694	 -4.920489	 -1.785559
H	 0.561451	 -4.126450	 -3.212906
H	 -1.078223	 -3.618672	 -3.474843
H	 -0.098792	 -5.116335	 -0.997540
H	 -0.952775	 -5.839055	 -2.345050
H	 -1.766050	 -4.684939	 -1.316185
H	 -3.440322	 -1.417144	 0.243099
H	 -3.694377	 -0.025850	 1.303346
H	 -2.331085	 -1.129829	 1.560495

6 3 2 1 F
