%nprocshared=1
%mem=2GB
#HF/6-31G* nosymm scf=tight opt=ModRedundant

Mol

0 1
H	 -3.892951	 0.981613	 -0.358725
C	 -3.196921	 0.361773	 0.172313
C	 -2.076860	 -0.007332	 -0.404944
H	 -3.439953	 0.057760	 1.173024
O	 -0.933501	 0.717919	 -0.288316
H	 -1.991666	 -0.909481	 -0.984655
C	 0.154949	 0.358018	 -1.067801
C	 0.105833	 1.008833	 -2.431737
H	 0.224879	 -0.714899	 -1.207994
H	 1.047297	 0.704403	 -0.567584
F	 1.182380	 0.664663	 -3.123401
F	 -0.954904	 0.623167	 -3.121614
F	 0.077350	 2.323090	 -2.352307

6 3 2 1 F
