%nprocshared=4
%mem=2GB
#HF/cc-pVTZ nosymm scf=tight opt=ModRedundant

Mol

0 1
H	 -3.144994	 -1.202467	 -0.018751
O	 -2.321472	 -0.864941	 -0.318626
C	 -2.021813	 0.336996	 0.342658
C	 -0.669613	 0.837286	 -0.127252
H	 -2.780861	 1.084746	 0.127159
H	 -2.006390	 0.184138	 1.420053
C	 0.490865	 -0.082543	 0.241244
H	 -0.708709	 0.967192	 -1.204587
H	 -0.507562	 1.822272	 0.303070
C	 1.839232	 0.631889	 0.251352
H	 0.524416	 -0.911050	 -0.456972
H	 0.307055	 -0.513849	 1.223237
C	 2.998600	 -0.284883	 0.627091
H	 2.024061	 1.061052	 -0.729648
H	 1.801381	 1.466972	 0.946256
H	 3.084520	 -1.111268	 -0.070492
H	 3.941149	 0.250740	 0.623372
H	 2.860699	 -0.704246	 1.618334

10 7 4 8 F
