%nprocshared=4
%mem=2GB
#HF/cc-pVTZ nosymm scf=tight opt=ModRedundant

Mol

0 1
H	 -2.677889	 -1.434451	 -0.492593
N	 -1.756550	 -1.331857	 -0.124249
C	 -1.426741	 0.067733	 0.072009
H	 -1.123206	 -1.743896	 -0.776243
C	 -0.025496	 0.210181	 0.620525
H	 -1.501652	 0.662272	 -0.837637
H	 -2.117626	 0.489288	 0.793826
O	 0.881195	 -0.248324	 -0.336237
H	 0.174963	 1.254564	 0.855586
H	 0.069351	 -0.369556	 1.535859
C	 2.208068	 -0.234417	 0.074171
H	 2.725499	 -1.027054	 -0.446768
H	 2.688377	 0.712084	 -0.164856
H	 2.295137	 -0.403407	 1.144883

5 8 11 13 F
