%nprocshared=4
%mem=2GB
#HF/cc-pVTZ nosymm scf=tight opt=ModRedundant

Mol

0 1
O	 1.216069	 1.304886	 0.000821
C	 1.121787	 0.124983	 0.000110
C	 -0.170912	 -0.649867	 -0.000147
O	 2.167739	 -0.685178	 -0.000678
C	 -1.413045	 0.229353	 0.001137
H	 -0.152877	 -1.303435	 -0.866175
H	 -0.152278	 -1.305116	 0.864586
C	 -1.564153	 1.020010	 1.297415
H	 -2.289655	 -0.388986	 -0.156191
H	 -1.370802	 0.910231	 -0.841576
C	 -2.807185	 1.902957	 1.310336
H	 -1.602561	 0.332604	 2.138389
H	 -0.682815	 1.637488	 1.449728
H	 -3.708353	 1.310417	 1.194672
H	 -2.888686	 2.451680	 2.241431
H	 -2.781900	 2.624842	 0.501124
C	 3.449556	 -0.089977	 -0.000570
H	 3.585694	 0.522473	 -0.879546
H	 4.155805	 -0.904274	 -0.001389
H	 3.586173	 0.521118	 0.879272

9 5 3 6 F
