%nprocshared=4
%mem=2GB
#HF/cc-pVTZ nosymm scf=tight opt=ModRedundant

Mol

0 1
O	 -2.070035	 -0.355750	 2.078569
C	 -1.020679	 0.194812	 2.163212
C	 0.239115	 -0.432523	 1.599814
C	 -0.887996	 1.550325	 2.815707
C	 0.376695	 -0.140025	 0.100361
H	 0.171177	 -1.501591	 1.756623
H	 1.111761	 -0.064644	 2.128983
C	 1.630207	 -0.772146	 -0.501001
H	 -0.510588	 -0.506916	 -0.399987
H	 0.406235	 0.934679	 -0.062232
C	 2.907848	 -0.545876	 0.309149
H	 1.772784	 -0.391628	 -1.509394
H	 1.468529	 -1.842059	 -0.599744
C	 3.373802	 0.906639	 0.372125
H	 3.699140	 -1.146831	 -0.127906
H	 2.764321	 -0.923458	 1.318191
H	 3.519798	 1.311927	 -0.623875
H	 4.316899	 0.983758	 0.900700
H	 2.661122	 1.540651	 0.885346
H	 -0.319513	 1.449720	 3.734784
H	 -1.864065	 1.953242	 3.038228
H	 -0.341257	 2.232271	 2.174134

3 5 8 12 F
