%nprocshared=4
%mem=2GB
#HF/cc-pVTZ nosymm scf=tight opt=ModRedundant

Mol

0 1
H	 -0.032687	 -0.422221	 0.753426
N	 -0.625934	 -0.663929	 -0.000707
C	 -1.978635	 -0.158664	 0.001017
C	 -0.122314	 -1.449340	 -0.978500
H	 -2.519057	 -0.493535	 -0.876362
H	 -1.938890	 0.917202	 -0.004137
H	 -2.514266	 -0.485137	 0.884506
C	 1.320194	 -1.858735	 -0.777535
O	 -0.753643	 -1.794309	 -1.933223
H	 1.429795	 -2.417275	 0.144756
H	 1.628421	 -2.472611	 -1.607727
H	 1.957721	 -0.984258	 -0.718649

4 2 3 5 F
