%nprocshared=4
%mem=2GB
#HF/cc-pVTZ nosymm scf=tight opt=ModRedundant

Mol

0 1
O	 -0.694481	 1.313155	 -0.204815
C	 -0.862519	 0.151932	 -0.046791
C	 -2.171428	 -0.477048	 0.339095
O	 0.085519	 -0.757083	 -0.192238
H	 -2.467997	 -1.191667	 -0.417688
H	 -2.923379	 0.287970	 0.444097
H	 -2.053854	 -1.015120	 1.270901
C	 1.392036	 -0.330828	 -0.560749
C	 1.484403	 1.178294	 -0.649729
H	 1.666035	 -0.793020	 -1.496227
H	 2.033954	 -0.710040	 0.220207
H	 2.506667	 1.467434	 -0.866120
H	 0.849649	 1.558561	 -1.438315
H	 1.192529	 1.635464	 0.288033

10 8 4 2 F
