%nprocshared=4
%mem=2GB
#HF/cc-pVTZ nosymm scf=tight opt=ModRedundant

Mol

0 1
O	 1.179567	 1.257430	 0.339648
C	 1.121787	 0.124983	 0.000110
C	 -0.119141	 -0.582561	 -0.480455
O	 2.167739	 -0.685178	 -0.000678
C	 -1.358942	 0.299690	 -0.501613
H	 0.098879	 -0.977823	 -1.467226
H	 -0.263090	 -1.447493	 0.158790
C	 -2.595437	 -0.447133	 -0.993187
H	 -1.174748	 1.161123	 -1.133710
H	 -1.537489	 0.690495	 0.493846
C	 -3.843439	 0.428444	 -1.020535
H	 -2.409285	 -0.839182	 -1.989623
H	 -2.774830	 -1.309220	 -0.356115
H	 -3.707767	 1.281456	 -1.676697
H	 -4.704573	 -0.127202	 -1.373215
H	 -4.076053	 0.807907	 -0.031354
C	 3.449556	 -0.089977	 -0.000570
H	 3.585694	 0.522473	 -0.879546
H	 4.155805	 -0.904274	 -0.001389
H	 3.586173	 0.521118	 0.879272

1 2 4 17 F
