%nprocshared=4
%mem=2GB
#HF/cc-pVTZ nosymm scf=tight opt=ModRedundant

Mol

0 1
O	 0.389043	 -1.160012	 -1.570758
C	 1.065692	 -1.163793	 -0.599618
C	 1.246364	 -0.005813	 0.348416
O	 1.769746	 -2.215048	 -0.211951
C	 0.453207	 1.232821	 -0.049003
H	 0.975774	 -0.362500	 1.334878
H	 2.309623	 0.208558	 0.391483
C	 -0.998367	 1.217982	 0.432195
H	 0.481498	 1.345443	 -1.127236
H	 0.951413	 2.105557	 0.354893
C	 -1.882951	 0.151251	 -0.211235
H	 -1.429490	 2.193659	 0.228843
H	 -1.019755	 1.099323	 1.513279
C	 -1.242540	 -1.234267	 -0.211356
H	 -2.831456	 0.107651	 0.319151
H	 -2.118301	 0.427902	 -1.234764
C	 -0.030043	 -1.343297	 -1.131539
H	 -1.983988	 -1.972284	 -0.507881
H	 -0.946098	 -1.492977	 0.802576
C	 0.603045	 -2.730726	 -1.127595
H	 -0.324742	 -1.085275	 -2.145096
H	 0.713169	 -0.608174	 -0.834746
H	 1.459969	 -2.773726	 -1.790027
H	 -0.105251	 -3.484937	 -1.454080
H	 0.939909	 -3.004404	 -0.133195
C	 1.695030	 -3.377076	 -1.012591
H	 0.679470	 -3.740841	 -1.063104
H	 2.328694	 -4.107711	 -0.536620
H	 2.046692	 -3.174088	 -2.013284

6 3 5 9 F
