%nprocshared=4
%mem=2GB
#HF/cc-pVTZ nosymm scf=tight opt=ModRedundant

Mol

0 1
H	 2.342730	 0.877684	 -1.045694
C	 2.360424	 0.000000	 -0.411793
C	 1.173749	 0.000000	 0.526870
H	 3.286567	 0.000000	 0.151574
H	 2.342730	 -0.877684	 -1.045694
O	 0.000000	 0.000000	 -0.223739
H	 1.203779	 0.876757	 1.172538
H	 1.203779	 -0.876757	 1.172538
C	 -1.173749	 0.000000	 0.526870
C	 -1.339691	 1.352575	 1.184357
H	 -1.133728	 -0.783932	 1.282078
H	 -2.027218	 -0.214383	 -0.115098
H	 -0.500417	 1.563568	 1.835183
H	 -2.248457	 1.375601	 1.774896
H	 -1.394852	 2.133719	 0.436530

11 9 6 3 F
