%nprocshared=4
%mem=2GB
#HF/cc-pVTZ nosymm scf=tight opt=ModRedundant

Mol

0 1
O	 -2.664606	 -0.561200	 0.821077
C	 -1.918515	 -1.165545	 0.121401
C	 -0.881910	 -0.448129	 -0.720509
C	 -1.948773	 -2.673639	 0.047196
C	 0.376695	 -0.140025	 0.100361
H	 -1.324723	 0.476867	 -1.067510
H	 -0.620170	 -1.047168	 -1.586251
C	 1.630207	 -0.772146	 -0.501001
H	 0.486632	 0.935267	 0.162725
H	 0.248225	 -0.501310	 1.117842
C	 2.907848	 -0.545876	 0.309149
H	 1.772784	 -0.391628	 -1.509394
H	 1.468529	 -1.842059	 -0.599744
C	 3.373802	 0.906639	 0.372125
H	 3.699140	 -1.146831	 -0.127906
H	 2.764321	 -0.923458	 1.318191
H	 3.519798	 1.311927	 -0.623875
H	 4.316899	 0.983758	 0.900700
H	 2.661122	 1.540651	 0.885346
H	 -2.288157	 -2.975566	 -0.938531
H	 -2.618029	 -3.069583	 0.795457
H	 -0.954291	 -3.083737	 0.182892

6 3 5 8 F
