%nprocshared=1
%mem=2GB
#HF/6-31G* nosymm scf=tight 

Mol

0 1
H	 -3.420663	 1.227371	 -1.044276
O	 -3.452007	 0.283848	 -0.965577
C	 -3.181085	 -0.079926	 0.364119
C	 -1.765924	 0.277073	 0.805136
H	 -3.327791	 -1.152017	 0.410903
H	 -3.905698	 0.375695	 1.036898
C	 -0.677594	 -0.417312	 -0.014550
H	 -1.637766	 1.358238	 0.744969
H	 -1.659588	 0.017670	 1.857098
C	 0.738335	 -0.034840	 0.421385
H	 -0.814977	 -0.178223	 -1.064632
H	 -0.802730	 -1.495410	 0.071702
C	 1.543395	 -1.230394	 0.937731
H	 1.254268	 0.426018	 -0.417568
H	 0.684665	 0.724091	 1.200967
C	 2.938643	 -0.882868	 1.469393
H	 1.636253	 -1.970835	 0.144749
H	 0.980243	 -1.710549	 1.735307
C	 3.912302	 -0.364833	 0.409189
H	 3.363931	 -1.772646	 1.927339
H	 2.846979	 -0.147005	 2.265827
H	 4.014356	 -1.075246	 -0.406922
H	 4.898705	 -0.208624	 0.835153
H	 3.587926	 0.580298	 -0.013507

20 16 13 17 F
17 13 10 7 F
11 7 4 3 F
1 2 3 5 F
7 4 3 2 F
