%nprocshared=4
%mem=2GB
#HF/cc-pVTZ nosymm scf=tight opt=ModRedundant

Mol

0 1
H	 -3.436473	 1.252944	 -1.023892
O	 -3.458596	 0.315260	 -0.960865
C	 -3.176635	 -0.080824	 0.355601
C	 -1.763371	 0.265266	 0.799691
H	 -3.321825	 -1.153438	 0.379502
H	 -3.895468	 0.357385	 1.043382
C	 -0.673390	 -0.426948	 -0.013392
H	 -1.631049	 1.344913	 0.747560
H	 -1.664587	 -0.001624	 1.849167
C	 0.737842	 -0.043159	 0.423759
H	 -0.806103	 -0.190518	 -1.063345
H	 -0.797221	 -1.503753	 0.074146
C	 1.786495	 -1.080157	 0.026256
H	 0.989277	 0.921873	 -0.005640
H	 0.758087	 0.088811	 1.503588
C	 3.205408	 -0.779920	 0.512458
H	 1.794276	 -1.185206	 -1.056220
H	 1.485198	 -2.046643	 0.420902
C	 3.846110	 0.456904	 -0.112772
H	 3.830849	 -1.640946	 0.297437
H	 3.198754	 -0.674076	 1.594203
H	 3.861253	 0.382006	 -1.195471
H	 4.870363	 0.570875	 0.223620
H	 3.315774	 1.364746	 0.148325

13 10 7 11 F
