%nprocshared=4
%mem=2GB
#HF/cc-pVTZ nosymm scf=tight opt=ModRedundant

Mol

0 1
H	 2.231388	 -0.953875	 0.792813
C	 1.469977	 -0.209670	 0.954816
O	 0.462329	 -0.453336	 -0.000137
H	 1.901296	 0.774738	 0.823961
H	 1.084811	 -0.308322	 1.961867
C	 -0.590565	 0.341382	 0.000062
O	 -1.693898	 -0.053880	 0.000252
H	 -0.340426	 1.403822	 0.000200

2 3 6 7 F
