%nprocshared=4
%mem=2GB
#HF/cc-pVTZ nosymm scf=tight opt=ModRedundant

Mol

0 1
H	 -3.498985	 1.253143	 -1.010443
O	 -3.458596	 0.315260	 -0.960865
C	 -3.176635	 -0.080824	 0.355601
C	 -1.763371	 0.265266	 0.799691
H	 -3.321825	 -1.153438	 0.379502
H	 -3.895468	 0.357385	 1.043382
C	 -1.274539	 -0.548433	 1.994371
H	 -1.085110	 0.127471	 -0.041046
H	 -1.735479	 1.325225	 1.040726
C	 -2.023424	 -0.229528	 3.285666
H	 -0.213795	 -0.373363	 2.136094
H	 -1.380831	 -1.606796	 1.768369
C	 -3.540135	 -0.214574	 3.105633
H	 -1.746963	 -0.957739	 4.042083
H	 -1.699247	 0.738744	 3.661453
C	 -4.072481	 0.915115	 2.222311
H	 -4.016373	 -0.159686	 4.081868
H	 -3.847205	 -1.162884	 2.673157
C	 -3.888279	 2.316918	 2.798645
H	 -5.131323	 0.746632	 2.051305
H	 -3.596707	 0.861656	 1.246504
H	 -4.349148	 2.398598	 3.777933
H	 -4.346765	 3.060000	 2.156103
H	 -2.842249	 2.578802	 2.902780

7 4 3 2 F
