%nprocshared=4
%mem=2GB
#HF/cc-pVTZ nosymm scf=tight opt=ModRedundant

Mol

0 1
H	 -1.820450	 0.597803	 -3.277899
C	 -2.406345	 0.083433	 -2.503925
C	 -1.755059	 -1.144356	 -1.927513
O	 -3.468005	 0.499130	 -2.191864
C	 -0.325503	 -0.884997	 -1.442974
H	 -2.382674	 -1.526275	 -1.132799
H	 -1.733726	 -1.886468	 -2.722572
C	 -0.247837	 0.040196	 -0.230469
H	 0.132032	 -1.837679	 -1.199256
H	 0.260865	 -0.468595	 -2.258434
C	 1.181757	 0.280428	 0.247371
H	 -0.833003	 -0.386892	 0.579644
H	 -0.712275	 0.994453	 -0.465241
C	 2.151032	 -0.811012	 -0.202643
H	 1.515939	 1.247397	 -0.115449
H	 1.191514	 0.341223	 1.333422
C	 3.580021	 -0.656538	 0.320835
H	 2.170545	 -0.847575	 -1.289412
H	 1.766632	 -1.772905	 0.124928
C	 4.327657	 0.562694	 -0.213579
H	 4.138806	 -1.549270	 0.057813
H	 3.561991	 -0.620783	 1.406976
H	 4.355973	 0.557257	 -1.298551
H	 3.867136	 1.491650	 0.100501
H	 5.351524	 0.571613	 0.142204

12 8 11 14 F
