%nprocshared=4
%mem=2GB
#HF/cc-pVTZ nosymm scf=tight opt=ModRedundant

Mol

0 1
O	 -0.694481	 1.313155	 -0.204815
C	 -0.862519	 0.151932	 -0.046791
C	 -2.171428	 -0.477048	 0.339095
O	 0.085519	 -0.757083	 -0.192238
H	 -2.467997	 -1.191667	 -0.417688
H	 -2.923379	 0.287970	 0.444097
H	 -2.053854	 -1.015120	 1.270901
C	 0.429111	 -1.572354	 0.922105
C	 -0.481433	 -2.777244	 1.036329
H	 0.400071	 -0.976398	 1.820886
H	 1.447945	 -1.876640	 0.734646
H	 -0.148808	 -3.407660	 1.853268
H	 -1.500461	 -2.474257	 1.234225
H	 -0.458994	 -3.361628	 0.124416

8 4 2 1 F
