%nprocshared=4
%mem=2GB
#HF/6-31G* nosymm scf=tight opt=ModRedundant

Mol

0 1
O	 -1.093133	 -4.362690	 -0.585361
C	 -0.486769	 -3.884080	 -1.495136
C	 -0.058928	 -2.427255	 -1.464805
C	 -0.087234	 -4.703905	 -2.701632
C	 1.191810	 -2.241436	 -0.590580
H	 -0.879353	 -1.852141	 -1.049533
H	 0.133668	 -2.064403	 -2.470425
C	 1.631333	 -0.777471	 -0.511575
H	 0.973651	 -2.628481	 0.398352
H	 2.009588	 -2.839925	 -0.989072
C	 2.915987	 -0.544314	 0.291766
H	 0.826165	 -0.184738	 -0.081343
H	 1.780981	 -0.401223	 -1.521471
C	 3.373361	 0.914346	 0.347591
H	 3.708709	 -1.142521	 -0.150311
H	 2.780642	 -0.921148	 1.303579
H	 3.506512	 1.320010	 -0.651625
H	 4.322697	 0.999599	 0.867103
H	 2.660624	 1.545032	 0.868198
H	 -0.613515	 -4.340810	 -3.580526
H	 -0.333153	 -5.744232	 -2.540296
H	 0.975765	 -4.602439	 -2.900483

12 8 11 15 F
