%nprocshared=4
%mem=2GB
#HF/cc-pVTZ nosymm scf=tight opt=ModRedundant

Mol

0 1
O	 1.216069	 1.304886	 0.000821
C	 1.121787	 0.124983	 0.000110
C	 -0.170912	 -0.649867	 -0.000147
O	 2.167739	 -0.685178	 -0.000678
C	 -1.413045	 0.229353	 0.001137
H	 -0.152877	 -1.303435	 -0.866175
H	 -0.152278	 -1.305116	 0.864586
C	 -1.698997	 0.829394	 1.374633
H	 -2.265085	 -0.354021	 -0.329381
H	 -1.291241	 1.022466	 -0.728027
C	 -2.943218	 1.710661	 1.387815
H	 -1.816765	 0.030037	 2.101544
H	 -0.841743	 1.412592	 1.700565
H	 -3.824053	 1.147099	 1.099521
H	 -3.121577	 2.122464	 2.374366
H	 -2.841935	 2.539742	 0.695755
C	 3.449556	 -0.089977	 -0.000570
H	 3.585694	 0.522473	 -0.879546
H	 4.155805	 -0.904274	 -0.001389
H	 3.586173	 0.521118	 0.879272

9 5 3 6 F
