%nprocshared=4
%mem=2GB
#HF/cc-pVTZ nosymm scf=tight opt=ModRedundant

Mol

0 1
O	 0.623971	 1.347241	 -0.000777
C	 0.485107	 0.171416	 -0.000134
C	 1.606966	 -0.836201	 0.000174
O	 -0.695554	 -0.422406	 0.000602
C	 2.988788	 -0.202529	 -0.000115
H	 1.465110	 -1.474645	 -0.864821
H	 1.465209	 -1.474077	 0.865596
H	 3.131767	 0.419673	 -0.873407
H	 3.750876	 -0.972315	 0.000098
H	 3.131883	 0.420264	 0.872742
C	 -1.650983	 0.000656	 -0.961926
C	 -2.903387	 -0.820060	 -0.760935
H	 -1.240032	 -0.138337	 -1.951950
H	 -1.842513	 1.056112	 -0.829060
H	 -2.699202	 -1.874853	 -0.895448
H	 -3.655493	 -0.521824	 -1.481785
H	 -3.305162	 -0.673568	 0.233795

11 4 2 3 F
