%nprocshared=4
%mem=2GB
#HF/6-31G* nosymm scf=tight opt=ModRedundant

Mol

0 1
H	 4.738664	 -0.524504	 2.882328
C	 4.248167	 -1.087041	 2.093983
C	 2.760847	 -0.745282	 2.014874
H	 4.751165	 -0.854906	 1.159934
H	 4.399429	 -2.143559	 2.298160
C	 2.036720	 -1.527119	 0.916611
H	 2.646749	 0.319032	 1.836493
H	 2.292090	 -0.955689	 2.974920
C	 0.542007	 -1.219308	 0.825221
H	 2.498368	 -1.319593	 -0.042273
H	 2.155597	 -2.592346	 1.101544
C	 0.219052	 0.162428	 0.275906
H	 0.058963	 -1.936532	 0.163383
H	 0.060156	 -1.341520	 1.792723
C	 -1.181045	 0.701995	 0.511084
O	 1.025697	 0.797316	 -0.334542
C	 -2.285934	 -0.139295	 -0.145128
H	 -1.200098	 1.713320	 0.123047
H	 -1.356408	 0.752884	 1.584090
C	 -3.651768	 0.085446	 0.506485
H	 -2.346596	 0.110469	 -1.202272
H	 -2.034737	 -1.195320	 -0.088721
C	 -4.759797	 -0.746382	 -0.137905
H	 -3.908762	 1.140117	 0.445781
H	 -3.588286	 -0.154158	 1.565709
H	 -4.868882	 -0.505166	 -1.191300
H	 -4.548009	 -1.809175	 -0.062213
H	 -5.715422	 -0.564821	 0.343442

12 15 17 21 F
