%nprocshared=1
%mem=2GB
#HF/6-31G* nosymm scf=tight 
prop=(read,field)

Mol

0 1
O	 -2.439893	 -0.935967	 -0.423857
C	 -1.921306	 0.064205	 -0.045706
C	 -2.624624	 1.379888	 0.150940
O	 -0.632729	 0.154537	 0.251540
H	 -2.168271	 2.136541	 -0.476885
H	 -3.669694	 1.273187	 -0.098619
H	 -2.519519	 1.700858	 1.180837
C	 0.160738	 -1.019967	 0.106203
C	 1.589473	 -0.672864	 0.480834
H	 0.089682	 -1.367842	 -0.916059
H	 -0.238612	 -1.792336	 0.749609
C	 2.246223	 0.346200	 -0.452219
H	 2.163041	 -1.597471	 0.473349
H	 1.604615	 -0.303460	 1.502876
C	 3.691582	 0.652071	 -0.061859
H	 2.219426	 -0.032347	 -1.472064
H	 1.666312	 1.263281	 -0.447258
H	 4.134352	 1.377177	 -0.737292
H	 4.305354	 -0.243903	 -0.089978
H	 3.748113	 1.059526	 0.943558

@grid.dat /N
