%nprocshared=4
%mem=2GB
#HF/cc-pVTZ nosymm scf=tight opt=ModRedundant

Mol

0 1
H	 7.752376	 -6.546995	 -2.007234
O	 7.385251	 -6.112930	 -1.259814
C	 7.746959	 -4.757039	 -1.259440
C	 7.025786	 -3.936678	 -2.318498
H	 7.492057	 -4.383607	 -0.276814
H	 8.824018	 -4.651601	 -1.374663
C	 5.518170	 -4.172626	 -2.375686
H	 7.224764	 -2.884975	 -2.135506
H	 7.464424	 -4.177730	 -3.283842
C	 5.157349	 -5.573184	 -2.868717
H	 5.063781	 -3.432494	 -3.025869
H	 5.092328	 -4.022614	 -1.385008
C	 3.660790	 -5.890228	 -2.875884
H	 5.558660	 -5.713677	 -3.869436
H	 5.659328	 -6.301128	 -2.237383
C	 3.009841	 -5.968591	 -1.496077
H	 3.152725	 -5.123541	 -3.454320
H	 3.495106	 -6.825883	 -3.405274
C	 3.483501	 -7.168232	 -0.679428
H	 1.929428	 -6.019756	 -1.612515
H	 3.212747	 -5.061324	 -0.935096
C	 4.787405	 -7.768073	 -1.195101
H	 3.610487	 -6.868801	 0.357294
H	 2.710250	 -7.931867	 -0.682378
H	 5.589371	 -7.037552	 -1.174452
H	 5.096164	 -8.614511	 -0.592342
H	 4.682460	 -8.112344	 -2.218729

20 16 19 22 F
