%nprocshared=4
%mem=2GB
#HF/cc-pVTZ nosymm scf=tight opt=ModRedundant

Mol

0 1
O	 1.459611	 0.833399	 2.794445
C	 1.062282	 -0.173990	 2.305845
C	 -0.064874	 -0.159900	 1.292253
C	 1.667347	 -1.513941	 2.651093
C	 0.464975	 0.137091	 -0.116257
H	 -0.762312	 0.613354	 1.588514
H	 -0.587122	 -1.110741	 1.297008
C	 1.630207	 -0.772146	 -0.501001
H	 -0.352228	 0.023730	 -0.817368
H	 0.787097	 1.173919	 -0.175617
C	 2.907848	 -0.545876	 0.309149
H	 1.848490	 -0.643966	 -1.558309
H	 1.321305	 -1.806520	 -0.377492
C	 3.373802	 0.906639	 0.372125
H	 3.699140	 -1.146831	 -0.127906
H	 2.764321	 -0.923458	 1.318191
H	 3.519798	 1.311927	 -0.623875
H	 4.316899	 0.983758	 0.900700
H	 2.661122	 1.540651	 0.885346
H	 0.938049	 -2.104950	 3.195915
H	 2.548280	 -1.378678	 3.259557
H	 1.917548	 -2.064432	 1.751122

12 8 11 15 F
