%nprocshared=4
%mem=2GB
#HF/cc-pVTZ nosymm scf=tight opt=ModRedundant

Mol

0 1
O	 -2.081319	 -0.951530	 -0.502732
N	 -1.613558	 0.006676	 0.014756
C	 -0.329345	 -0.171618	 0.743966
O	 -2.068523	 1.100482	 -0.024385
C	 0.835904	 0.041968	 -0.213982
H	 -0.346048	 -1.174374	 1.137184
H	 -0.333613	 0.555559	 1.538590
C	 2.177039	 -0.130175	 0.494460
H	 0.754456	 -0.665923	 -1.030569
H	 0.765464	 1.037260	 -0.637266
C	 3.320141	 0.550228	 -0.250423
H	 2.395106	 -1.188600	 0.602256
H	 2.108857	 0.275035	 1.499727
H	 3.434152	 0.141761	 -1.248348
H	 3.144620	 1.615940	 -0.346167
H	 4.258547	 0.414168	 0.273069

11 8 5 9 F
