%nprocshared=4
%mem=2GB
#HF/cc-pVTZ nosymm scf=tight opt=ModRedundant

Mol

0 1
H	 -3.212708	 1.454216	 -0.276838
C	 -2.619647	 2.108123	 0.358432
O	 -1.267755	 2.023381	 0.053888
H	 -2.932204	 3.129046	 0.194382
H	 -2.812915	 1.846144	 1.397132
C	 -0.718530	 0.758693	 0.228682
C	 0.718529	 0.758687	 -0.228709
H	 -0.754222	 0.473836	 1.280135
H	 -1.274477	 0.015752	 -0.339114
O	 1.401606	 -0.295166	 0.366636
H	 0.748705	 0.673477	 -1.312803
H	 1.176496	 1.708671	 0.046552
C	 2.714315	 -0.441627	 -0.061017
H	 2.765292	 -0.641548	 -1.128869
H	 3.305661	 0.447341	 0.150952
H	 3.143725	 -1.278506	 0.470147

3 6 7 11 F
