%nprocshared=4
%mem=2GB
#HF/cc-pVTZ nosymm scf=tight opt=ModRedundant

Mol

0 1
H	 -0.894442	 3.896901	 1.573850
O	 -0.079658	 3.417786	 1.591011
C	 -0.220914	 2.320329	 0.853062
C	 1.038472	 1.497228	 0.831081
O	 -1.233370	 2.059714	 0.300808
C	 0.926581	 0.227233	 0.000178
H	 1.291399	 1.273242	 1.862383
H	 1.833103	 2.139528	 0.465392
C	 2.220156	 -0.582071	 -0.000088
H	 0.113283	 -0.379574	 0.381972
H	 0.655649	 0.487767	 -1.016748
C	 3.466689	 0.296012	 -0.000457
H	 2.239073	 -1.234095	 -0.869382
H	 2.239505	 -1.233985	 0.869270
H	 3.493549	 0.935857	 -0.875887
H	 4.368821	 -0.304526	 -0.001199
H	 3.494559	 0.935166	 0.875458

10 6 9 13 F
