%nprocshared=4
%mem=2GB
#HF/6-31G* nosymm scf=tight opt=ModRedundant

Mol

0 1
H	 2.591676	 2.013956	 0.335017
O	 3.341076	 1.666752	 -0.126416
C	 3.569581	 0.339145	 0.272707
C	 3.487626	 -0.657221	 -0.878495
H	 4.565413	 0.326573	 0.696777
H	 2.877563	 0.054822	 1.064573
C	 2.101759	 -0.753028	 -1.521193
H	 4.220108	 -0.376075	 -1.630687
H	 3.779789	 -1.635866	 -0.501318
C	 2.038437	 -1.799961	 -2.636872
H	 1.824986	 0.219061	 -1.919696
H	 1.364606	 -1.000308	 -0.757126
C	 0.650296	 -1.996933	 -3.257038
H	 2.747293	 -1.533275	 -3.418696
H	 2.374798	 -2.753786	 -2.235897
C	 0.116079	 -0.792445	 -4.036973
H	 0.693975	 -2.852517	 -3.927772
H	 -0.058523	 -2.263110	 -2.474374
C	 -1.221964	 -1.073116	 -4.724214
H	 0.848678	 -0.496506	 -4.786527
H	 -0.002340	 0.060619	 -3.373226
C	 -1.760602	 0.129608	 -5.498158
H	 -1.108545	 -1.916525	 -5.401919
H	 -1.952649	 -1.378361	 -3.978016
H	 -1.066431	 0.439169	 -6.274382
H	 -2.708134	 -0.101323	 -5.975117
H	 -1.920136	 0.979841	 -4.840880

4 3 2 1 F
