%nprocshared=4
%mem=2GB
#HF/6-31G* nosymm scf=tight opt=ModRedundant

Mol

0 1
O	 0.501101	 0.382679	 0.979300
C	 1.122059	 0.121804	 -0.000188
C	 0.838840	 0.648784	 -1.385819
O	 2.172624	 -0.688929	 0.000216
C	 -0.362236	 1.587621	 -1.443635
H	 1.741363	 1.142134	 -1.736265
H	 0.699374	 -0.209536	 -2.037426
C	 -0.627114	 2.106388	 -2.857879
H	 -0.196989	 2.422852	 -0.770147
H	 -1.240436	 1.069353	 -1.071256
C	 -1.829656	 3.046799	 -2.925132
H	 0.256167	 2.624099	 -3.226482
H	 -0.789430	 1.265398	 -3.529042
H	 -1.682947	 3.915873	 -2.290435
H	 -1.995376	 3.400258	 -3.937989
H	 -2.736100	 2.547290	 -2.595753
C	 3.452279	 -0.082609	 0.000533
H	 3.583069	 0.529321	 -0.880332
H	 4.163299	 -0.894027	 0.001117
H	 3.582335	 0.529955	 0.881077

1 2 4 17 F
