%nprocshared=4
%mem=2GB
#HF/cc-pVTZ nosymm scf=tight opt=ModRedundant

Mol

0 1
H	 6.830139	 -7.991321	 -3.594019
O	 6.919685	 -7.395448	 -2.873778
C	 7.556133	 -6.217560	 -3.294236
C	 9.036615	 -6.170960	 -2.946833
H	 7.435355	 -6.183902	 -4.368601
H	 7.048999	 -5.345604	 -2.885632
C	 9.803261	 -7.444529	 -3.296294
H	 9.484417	 -5.322991	 -3.456322
H	 9.123552	 -5.980157	 -1.879858
C	 9.391134	 -8.637639	 -2.435204
H	 10.867079	 -7.265836	 -3.180690
H	 9.638808	 -7.687675	 -4.344684
C	 10.074843	 -9.958872	 -2.791773
H	 9.581101	 -8.405991	 -1.389987
H	 8.316683	 -8.772358	 -2.523941
C	 9.699860	 -10.533177	 -4.156801
H	 11.149980	 -9.804174	 -2.765779
H	 9.857913	 -10.694383	 -2.020333
C	 8.251589	 -11.010737	 -4.226510
H	 10.361824	 -11.364566	 -4.389320
H	 9.860952	 -9.790047	 -4.931921
C	 7.256502	 -9.990484	 -3.683575
H	 8.000352	 -11.244970	 -5.257331
H	 8.153252	 -11.939836	 -3.671382
H	 7.307594	 -9.059960	 -4.239230
H	 6.239386	 -10.359458	 -3.750210
H	 7.457686	 -9.762934	 -2.641894

4 3 2 1 F
