%nprocshared=4
%mem=2GB
#HF/cc-pVTZ nosymm scf=tight opt=ModRedundant

Mol

0 1
H	 0.939811	 3.103803	 6.155669
C	 0.004244	 2.577258	 6.006227
C	 -0.328472	 2.454567	 4.523132
H	 0.098156	 1.599218	 6.465393
H	 -0.769682	 3.120076	 6.539319
C	 -1.647539	 1.726509	 4.274203
H	 0.474771	 1.929915	 4.018673
H	 -0.379258	 3.447947	 4.083315
C	 -2.009813	 1.594207	 2.798351
H	 -1.605492	 0.739008	 4.716812
H	 -2.448167	 2.263453	 4.774672
C	 -1.158526	 0.603377	 2.022431
H	 -3.036837	 1.251647	 2.700162
H	 -1.973020	 2.558943	 2.300909
C	 -1.180025	 0.697761	 0.509157
O	 -0.513801	 -0.230398	 2.572361
C	 -2.285431	 -0.137488	 -0.145671
H	 -0.209921	 0.373472	 0.157623
H	 -1.304974	 1.741273	 0.232271
C	 -3.646545	 0.082747	 0.508954
H	 -2.348635	 0.118247	 -1.199806
H	 -2.034895	 -1.192387	 -0.096473
C	 -4.757412	 -0.737227	 -0.138149
H	 -3.900211	 1.137405	 0.459735
H	 -3.580878	 -0.166775	 1.564416
H	 -4.867876	 -0.486707	 -1.187777
H	 -4.549650	 -1.800049	 -0.072540
H	 -5.709585	 -0.556397	 0.346597

16 12 15 17 F
