%nprocshared=4
%mem=2GB
#HF/cc-pVTZ nosymm scf=tight opt=ModRedundant

Mol

0 1
H	 0.022780	 -3.408261	 -0.243092
O	 0.359877	 -2.670896	 0.243071
C	 0.116995	 -1.562917	 -0.451782
C	 0.626018	 -0.337582	 0.258241
O	 -0.435178	 -1.585393	 -1.496982
C	 -0.267326	 0.883135	 0.076490
H	 0.741926	 -0.606795	 1.301289
H	 1.628560	 -0.149021	 -0.112955
C	 -1.726822	 0.642622	 0.463839
H	 -0.210803	 1.217591	 -0.953497
H	 0.129920	 1.693110	 0.675679
C	 -1.934220	 -0.056904	 1.806110
H	 -2.186127	 0.039886	 -0.313979
H	 -2.262166	 1.589643	 0.465771
C	 -3.401130	 -0.363775	 2.089801
H	 -1.364161	 -0.982071	 1.817620
H	 -1.541149	 0.554527	 2.612089
H	 -3.520459	 -0.861079	 3.045381
H	 -3.820419	 -1.009538	 1.325677
H	 -3.993133	 0.545128	 2.113962

5 3 4 7 F
