%nprocshared=1
%mem=2GB
#HF/6-31G* nosymm scf=tight 

Mol

0 1
O	 1.846825	 1.296220	 0.000415
C	 1.705091	 0.115954	 0.001797
C	 0.381791	 -0.609817	 0.001258
O	 2.721346	 -0.737485	 -0.000216
C	 -0.823008	 0.326187	 0.001381
H	 0.371250	 -1.265087	 -0.865474
H	 0.370908	 -1.265746	 0.867490
C	 -0.555917	 1.616126	 -0.775652
H	 -1.092654	 0.561795	 1.026061
H	 -1.677497	 -0.190709	 -0.424033
C	 -1.753906	 2.567228	 -0.785047
H	 0.304208	 2.127980	 -0.346482
H	 -0.283736	 1.373076	 -1.801677
C	 -1.486852	 3.855377	 -1.562611
H	 -2.025458	 2.813040	 0.239149
H	 -2.613687	 2.057649	 -1.214283
H	 -0.653142	 4.405727	 -1.135696
H	 -2.354095	 4.508224	 -1.551193
H	 -1.245577	 3.644269	 -2.600652
C	 4.024888	 -0.184556	 -0.001949
H	 4.179030	 0.422472	 -0.882452
H	 4.701782	 -1.024608	 -0.003642
H	 4.181981	 0.421185	 0.878906

15 11 8 12 F
9 5 8 12 F
1 2 3 6 F
1 2 4 20 F
