%nprocshared=4
%mem=2GB
#HF/cc-pVTZ nosymm scf=tight opt=ModRedundant

Mol

0 1
O	 3.219313	 0.959291	 -0.614106
C	 2.698710	 0.058177	 -0.050237
C	 1.246364	 -0.005813	 0.348416
O	 3.344101	 -1.038700	 0.312317
C	 0.453207	 1.232821	 -0.049003
H	 0.839270	 -0.907818	 -0.092281
H	 1.216683	 -0.160521	 1.422434
C	 -0.998367	 1.217982	 0.432195
H	 0.481498	 1.345443	 -1.127236
H	 0.951413	 2.105557	 0.354893
C	 -1.882951	 0.151251	 -0.211235
H	 -1.429490	 2.193659	 0.228843
H	 -1.019755	 1.099323	 1.513279
C	 -3.113755	 -0.187381	 0.625566
H	 -2.200553	 0.496293	 -1.192534
H	 -1.312169	 -0.757643	 -0.377537
C	 -4.001835	 -1.256431	 -0.004687
H	 -3.698836	 0.715204	 0.784820
H	 -2.797248	 -0.521186	 1.611093
C	 -5.230156	 -1.587932	 0.836213
H	 -4.319055	 -0.924219	 -0.989434
H	 -3.419266	 -2.160165	 -0.161957
H	 -5.838055	 -2.349307	 0.361082
H	 -5.852665	 -0.711394	 0.982064
H	 -4.945714	 -1.956126	 1.816383
C	 4.720529	 -1.114346	 0.001449
H	 4.874321	 -1.055557	 -1.065852
H	 5.057824	 -2.067950	 0.373977
H	 5.264321	 -0.313596	 0.480350

15 11 8 5 F
