%nprocshared=4
%mem=2GB
#HF/6-31G* nosymm scf=tight opt=ModRedundant

Mol

0 1
H	 5.011770	 2.061459	 -0.892820
C	 4.241837	 1.816575	 -1.617911
C	 3.004558	 1.235438	 -0.934832
H	 3.996725	 2.725264	 -2.159710
H	 4.667598	 1.112292	 -2.327497
C	 1.900666	 0.872348	 -1.930524
H	 2.621847	 1.952808	 -0.216144
H	 3.288217	 0.347132	 -0.372566
C	 0.655938	 0.271165	 -1.277456
H	 1.612842	 1.754162	 -2.491955
H	 2.291277	 0.153779	 -2.647547
C	 -0.173102	 1.264122	 -0.476224
H	 -0.002133	 -0.134047	 -2.044604
H	 0.919089	 -0.571009	 -0.641319
C	 -1.181045	 0.701995	 0.511084
O	 -0.054274	 2.443038	 -0.626035
C	 -2.285934	 -0.139295	 -0.145128
H	 -1.614143	 1.544893	 1.036121
H	 -0.649039	 0.092733	 1.239407
C	 -3.651768	 0.085446	 0.506485
H	 -2.346596	 0.110469	 -1.202272
H	 -2.034737	 -1.195320	 -0.088721
C	 -4.759797	 -0.746382	 -0.137905
H	 -3.908762	 1.140117	 0.445781
H	 -3.588286	 -0.154158	 1.565709
H	 -4.868882	 -0.505166	 -1.191300
H	 -4.548009	 -1.809175	 -0.062213
H	 -5.715422	 -0.564821	 0.343442

12 15 17 21 F
