%nprocshared=4
%mem=2GB
#HF/cc-pVTZ nosymm scf=tight opt=ModRedundant

Mol

0 1
H	 -2.177745	 -0.608770	 -3.386952
C	 -1.356956	 -0.594689	 -2.696864
C	 -1.243214	 -1.571034	 -1.717248
C	 -0.399928	 0.390677	 -2.767768
H	 -1.980609	 -2.348066	 -1.646530
C	 -0.193224	 -1.556787	 -0.831053
H	 -0.470975	 1.154562	 -3.518847
C	 0.667084	 0.419999	 -1.880618
H	 -0.096105	 -2.306381	 -0.070562
C	 0.771229	 -0.557524	 -0.908156
H	 1.395170	 1.200193	 -1.962165
O	 1.760432	 -0.625184	 0.000000
C	 2.773565	 0.334879	 0.000000
H	 2.728295	 0.960928	 -0.884150
H	 3.706387	 -0.206610	 0.000000
H	 2.728295	 0.960928	 0.884150

10 12 13 14 F
