%nprocshared=4
%mem=2GB
#HF/6-31G* nosymm scf=tight opt=ModRedundant

Mol

0 1
H	 -4.031818	 -0.453427	 -0.000094
C	 -2.967712	 -0.297022	 -0.000064
C	 -2.458620	 0.992929	 0.000032
C	 -2.109895	 -1.385637	 -0.000122
H	 -3.124998	 1.836319	 0.000077
C	 -1.090278	 1.193236	 0.000070
H	 -2.506361	 -2.384847	 -0.000198
C	 -0.739812	 -1.187531	 -0.000085
H	 -0.678594	 2.184290	 0.000146
C	 -0.226438	 0.104061	 0.000012
H	 -0.072310	 -2.027032	 -0.000131
C	 1.239129	 0.373821	 0.000060
O	 1.532427	 1.648120	 -0.211463
O	 2.069795	 -0.462505	 0.171558
C	 2.905922	 1.994423	 -0.227498
H	 3.365585	 1.762775	 0.722157
H	 2.938799	 3.057016	 -0.410990
H	 3.421388	 1.461321	 -1.013001

13 12 10 6 F
