%nprocshared=4
%mem=2GB
#HF/cc-pVTZ nosymm scf=tight opt=ModRedundant

Mol

0 1
O	 0.625980	 0.313948	 -4.782506
C	 0.131559	 0.688379	 -3.769204
C	 0.199608	 -0.151413	 -2.508980
C	 -0.571002	 2.022007	 -3.676399
C	 1.524488	 0.072412	 -1.769090
H	 0.118618	 -1.190287	 -2.802735
H	 -0.632800	 0.084158	 -1.854404
C	 1.630207	 -0.772146	 -0.501001
H	 2.335723	 -0.158987	 -2.447751
H	 1.625129	 1.122937	 -1.507237
C	 2.907848	 -0.545876	 0.309149
H	 1.554896	 -1.823915	 -0.765746
H	 0.775455	 -0.556507	 0.134217
C	 3.373802	 0.906639	 0.372125
H	 3.699140	 -1.146831	 -0.127906
H	 2.764321	 -0.923458	 1.318191
H	 3.519798	 1.311927	 -0.623875
H	 4.316899	 0.983758	 0.900700
H	 2.661122	 1.540651	 0.885346
H	 -1.632453	 1.856070	 -3.522176
H	 -0.422743	 2.584649	 -4.585256
H	 -0.208398	 2.587435	 -2.825282

12 8 11 15 F
