%nprocshared=1
%mem=2GB
#HF/6-31G* nosymm scf=tight 

Mol

0 1
H	 3.729471	 -0.928294	 -0.070608
O	 2.826016	 -1.159218	 0.122261
C	 2.077727	 -0.067559	 -0.035091
C	 0.624473	 -0.343591	 0.253101
O	 2.542965	 0.974826	 -0.363729
C	 -0.265902	 0.883932	 0.072916
H	 0.324016	 -1.163849	 -0.390541
H	 0.565024	 -0.726111	 1.268924
C	 -1.728698	 0.646073	 0.462102
H	 -0.209144	 1.219470	 -0.958188
H	 0.135059	 1.692851	 0.673903
C	 -2.447306	 1.864018	 1.049614
H	 -1.756451	 -0.158457	 1.193349
H	 -2.281160	 0.284909	 -0.404213
C	 -3.867055	 1.540333	 1.514392
H	 -1.871689	 2.248922	 1.888994
H	 -2.491063	 2.664431	 0.315580
H	 -4.356102	 2.418212	 1.924847
H	 -3.862287	 0.773629	 2.283788
H	 -4.475703	 1.177370	 0.690958

16 12 9 6 F
7 4 6 10 F
5 3 4 7 F
1 2 3 5 F
