%nprocshared=4
%mem=2GB
#HF/6-31G* nosymm scf=tight opt=ModRedundant

Mol

0 1
H	 0.777919	 6.877022	 0.062133
C	 -0.232354	 6.523168	 -0.118587
C	 -0.269218	 5.001190	 -0.250496
H	 -0.852651	 6.857443	 0.707750
H	 -0.595378	 7.005921	 -1.021894
C	 -1.679755	 4.468946	 -0.513016
H	 0.123430	 4.553300	 0.656600
H	 0.387849	 4.694754	 -1.062931
C	 -1.745470	 2.949402	 -0.667722
H	 -2.338048	 4.769610	 0.294384
H	 -2.066853	 4.922156	 -1.422849
C	 -1.522356	 2.177584	 0.624470
H	 -2.728492	 2.659727	 -1.035860
H	 -1.037383	 2.604110	 -1.417764
C	 -1.181045	 0.701995	 0.511084
O	 -1.628133	 2.701564	 1.692488
C	 -2.285934	 -0.139295	 -0.145128
H	 -0.984223	 0.344371	 1.514618
H	 -0.262749	 0.602632	 -0.064715
C	 -3.651768	 0.085446	 0.506485
H	 -2.346596	 0.110469	 -1.202272
H	 -2.034737	 -1.195320	 -0.088721
C	 -4.759797	 -0.746382	 -0.137905
H	 -3.908762	 1.140117	 0.445781
H	 -3.588286	 -0.154158	 1.565709
H	 -4.868882	 -0.505166	 -1.191300
H	 -4.548009	 -1.809175	 -0.062213
H	 -5.715422	 -0.564821	 0.343442

12 15 17 21 F
