%nprocshared=4
%mem=2GB
#HF/cc-pVTZ nosymm scf=tight opt=ModRedundant

Mol

0 1
O	 -0.694481	 1.313155	 -0.204815
C	 -0.862519	 0.151932	 -0.046791
C	 -2.171428	 -0.477048	 0.339095
O	 0.085519	 -0.757083	 -0.192238
H	 -2.467997	 -1.191667	 -0.417688
H	 -2.923379	 0.287970	 0.444097
H	 -2.053854	 -1.015120	 1.270901
C	 1.392036	 -0.330828	 -0.560749
C	 2.453624	 -1.295842	 -0.075280
H	 1.563768	 0.662146	 -0.175618
H	 1.372742	 -0.291171	 -1.639547
H	 3.426211	 -0.974774	 -0.430866
H	 2.480907	 -1.328879	 1.005251
H	 2.265348	 -2.293549	 -0.453071

10 8 4 2 F
