%nprocshared=1
%mem=2GB
#HF/6-31G* nosymm scf=tight opt=ModRedundant

Mol

0 1
O	 3.454395	 -3.053254	 1.232796
C	 2.822948	 -2.092518	 0.930601
C	 1.350563	 -1.888374	 1.193654
O	 3.347903	 -1.046386	 0.304773
C	 0.703312	 -3.062650	 1.924583
H	 1.251805	 -0.960398	 1.747096
H	 0.872033	 -1.713634	 0.233356
C	 -0.811424	 -2.917341	 2.106114
H	 1.179309	 -3.189000	 2.892354
H	 0.908921	 -3.971294	 1.369143
C	 -1.244022	 -1.776050	 3.031006
H	 -1.193899	 -3.853182	 2.506910
H	 -1.282836	 -2.791500	 1.132490
C	 -2.755421	 -1.741515	 3.266547
H	 -0.733382	 -1.877640	 3.987429
H	 -0.931214	 -0.819839	 2.617745
C	 -3.199816	 -0.601867	 4.185158
H	 -3.074857	 -2.690948	 3.692896
H	 -3.267015	 -1.650736	 2.309609
C	 -4.710016	 -0.576752	 4.418321
H	 -2.688773	 -0.690483	 5.141518
H	 -2.885227	 0.348273	 3.758486
H	 -4.993843	 0.241564	 5.072850
H	 -5.051285	 -1.500566	 4.876905
H	 -5.249168	 -0.454424	 3.483107
C	 4.728119	 -1.109107	 -0.004993
H	 4.882018	 -1.033965	 -1.071845
H	 5.068212	 -2.067527	 0.355250
H	 5.265056	 -0.311663	 0.488280

2 4 26 27 F
