%nprocshared=1
%mem=2GB
#HF/6-31G* nosymm scf=tight 

Mol

0 1
H	 -4.236494	 0.538104	 0.039757
O	 -3.517110	 -0.026191	 -0.205115
C	 -2.306886	 0.532354	 0.237577
C	 -1.177863	 -0.397191	 -0.171080
H	 -2.156308	 1.517575	 -0.201710
H	 -2.315015	 0.655684	 1.319734
C	 0.198102	 0.111031	 0.262842
H	 -1.208843	 -0.518759	 -1.250427
H	 -1.368741	 -1.376554	 0.258909
C	 1.331804	 -0.827780	 -0.158768
H	 0.361943	 1.100838	 -0.156218
H	 0.217265	 0.229072	 1.345532
C	 2.723619	 -0.410569	 0.329459
H	 1.342964	 -0.912588	 -1.244120
H	 1.116806	 -1.824343	 0.220779
C	 3.315937	 0.799183	 -0.395795
H	 3.397927	 -1.254572	 0.206757
H	 2.684060	 -0.207717	 1.397846
H	 3.356172	 0.629699	 -1.468500
H	 2.735966	 1.700049	 -0.224764
H	 4.328023	 0.995041	 -0.055096

2 3 4 8 F
8 4 7 10 F
4 7 10 14 F
1 2 3 5 F
