%nprocshared=4
%mem=2GB
#HF/6-31G* nosymm scf=tight opt=ModRedundant

Mol

0 1
H	 -3.261111	 -0.295142	 1.469456
C	 -3.306842	 -0.277400	 0.373456
C	 -2.660244	 0.921717	 -0.272021
O	 -3.838538	 -1.161155	 -0.216482
C	 -3.687693	 1.947915	 -0.769537
H	 -1.969370	 1.361428	 0.437948
H	 -2.080893	 0.555612	 -1.118765
C	 -4.466051	 2.628793	 0.359118
H	 -3.166741	 2.700700	 -1.353668
H	 -4.382083	 1.461689	 -1.453030
C	 -5.477957	 3.656902	 -0.150640
H	 -3.763540	 3.114089	 1.033516
H	 -4.985015	 1.879446	 0.953840
C	 -6.243172	 4.347438	 0.981418
H	 -4.955713	 4.396560	 -0.752219
H	 -6.186876	 3.165783	 -0.815937
C	 -7.326899	 5.326873	 0.516322
H	 -5.538445	 4.871407	 1.625242
H	 -6.710331	 3.584969	 1.601189
C	 -6.796572	 6.561771	 -0.214021
H	 -7.890843	 5.652971	 1.386710
H	 -8.034184	 4.803930	 -0.124147
H	 -6.073919	 7.096152	 0.397108
H	 -6.312101	 6.303796	 -1.149815
H	 -7.604876	 7.248882	 -0.445362

6 3 2 4 F
