%nprocshared=4
%mem=2GB
#HF/cc-pVTZ nosymm scf=tight opt=ModRedundant

Mol

0 1
H	 -2.525255	 1.148399	 -1.073590
N	 -1.543399	 1.159747	 -0.897807
C	 -0.832659	 0.335444	 -1.857763
H	 -1.398072	 0.810829	 0.025845
C	 0.652004	 0.352820	 -1.574706
H	 -1.167731	 -0.700942	 -1.871028
H	 -0.993120	 0.741802	 -2.850324
O	 0.881195	 -0.248324	 -0.336237
H	 1.183681	 -0.187388	 -2.356798
H	 1.010327	 1.379685	 -1.565645
C	 2.208068	 -0.234417	 0.074171
H	 2.725499	 -1.027054	 -0.446768
H	 2.688377	 0.712084	 -0.164856
H	 2.295137	 -0.403407	 1.144883

5 8 11 13 F
