%nprocshared=4
%mem=2GB
#HF/cc-pVTZ nosymm scf=tight opt=ModRedundant

Mol

0 1
O	 0.395927	 1.296676	 -0.000076
C	 0.503051	 0.114301	 -0.000074
C	 -0.701422	 -0.805636	 -0.000109
C	 1.858118	 -0.556123	 0.000212
C	 -1.097669	 -1.308132	 -1.379445
H	 -0.479971	 -1.635462	 0.666062
H	 -1.523023	 -0.269838	 0.468220
H	 -0.289305	 -1.862247	 -1.837409
H	 -1.961764	 -1.957938	 -1.309099
H	 -1.341611	 -0.484528	 -2.037017
H	 1.961106	 -1.191101	 -0.872843
H	 2.636688	 0.191085	 -0.000109
H	 1.961070	 -1.190284	 0.873873

6 3 2 1 F
