%nprocshared=4
%mem=2GB
#HF/cc-pVTZ nosymm scf=tight opt=ModRedundant

Mol

0 1
O	 -2.375798	 0.694606	 -1.659096
C	 -2.431726	 -0.191472	 -0.875411
C	 -3.588955	 -1.148325	 -0.777747
O	 -1.481217	 -0.452708	 0.001092
H	 -3.711197	 -1.639212	 -1.733868
H	 -3.440272	 -1.882857	 -0.002507
H	 -4.488734	 -0.580801	 -0.581822
C	 -0.332055	 0.384012	 -0.000250
C	 0.892252	 -0.506059	 -0.000295
H	 -0.360822	 1.020205	 -0.874146
H	 -0.359817	 1.021310	 0.872861
C	 2.188199	 0.299473	 -0.001416
H	 0.857046	 -1.152781	 -0.871031
H	 0.857910	 -1.151798	 0.871202
C	 3.437151	 -0.577593	 -0.000991
H	 2.209565	 0.950707	 -0.871712
H	 2.210062	 0.952234	 0.867721
C	 4.732399	 0.226982	 -0.000914
H	 3.417321	 -1.229122	 -0.869998
H	 3.416993	 -1.228707	 0.868337
H	 4.797903	 0.863451	 -0.876963
H	 5.598517	 -0.424436	 -0.000420
H	 4.797415	 0.864118	 0.874691

2 4 8 10 F
