%nprocshared=4
%mem=2GB
#HF/cc-pVTZ nosymm scf=tight opt=ModRedundant

Mol

0 1
O	 3.219313	 0.959291	 -0.614106
C	 2.698710	 0.058177	 -0.050237
C	 1.246364	 -0.005813	 0.348416
O	 3.344101	 -1.038700	 0.312317
C	 0.453207	 1.232821	 -0.049003
H	 0.839270	 -0.907818	 -0.092281
H	 1.216683	 -0.160521	 1.422434
C	 -0.998367	 1.217982	 0.432195
H	 0.481498	 1.345443	 -1.127236
H	 0.951413	 2.105557	 0.354893
C	 -1.882951	 0.151251	 -0.211235
H	 -1.429490	 2.193659	 0.228843
H	 -1.019755	 1.099323	 1.513279
C	 -1.342984	 -0.343207	 -1.550539
H	 -1.977837	 -0.691216	 0.470027
H	 -2.886963	 0.537707	 -0.360057
C	 -1.398047	 0.709445	 -2.654018
H	 -1.906450	 -1.218988	 -1.863355
H	 -0.314768	 -0.673983	 -1.423168
C	 -0.858633	 0.207450	 -3.989237
H	 -2.424888	 1.040788	 -2.782589
H	 -0.832994	 1.584382	 -2.344088
H	 -0.911847	 0.978217	 -4.749546
H	 -1.425810	 -0.646624	 -4.344171
H	 0.178318	 -0.099653	 -3.901900
C	 4.720529	 -1.114346	 0.001449
H	 4.874321	 -1.055557	 -1.065852
H	 5.057824	 -2.067950	 0.373977
H	 5.264321	 -0.313596	 0.480350

15 11 8 5 F
