%nprocshared=4
%mem=2GB
#HF/cc-pVTZ nosymm scf=tight opt=ModRedundant

Mol

0 1
H	 -1.904129	 0.937314	 2.443019
O	 -0.972839	 0.809629	 2.472132
C	 -0.392345	 1.309562	 1.307349
C	 -0.793473	 0.591216	 0.050087
H	 0.680054	 1.226250	 1.438960
H	 -0.608602	 2.369881	 1.190494
C	 -1.534243	 -0.493009	 -0.013340
H	 -0.419615	 1.033783	 -0.858545
H	 -1.101195	 -1.466332	 -0.144046
H	 -2.604242	 -0.437780	 0.050785

3 4 7 9 F
