%nprocshared=4
%mem=2GB
#HF/cc-pVTZ nosymm scf=tight opt=ModRedundant

Mol

0 1
H	 -3.590438	 -1.999639	 5.901724
C	 -2.579870	 -1.626839	 5.780727
C	 -2.256484	 -1.377529	 4.311513
H	 -2.493184	 -0.712809	 6.358005
H	 -1.903819	 -2.357034	 6.213821
C	 -0.834839	 -0.861104	 4.101267
H	 -2.964080	 -0.663656	 3.905765
H	 -2.387974	 -2.301584	 3.753251
C	 -0.480549	 -0.608385	 2.639248
H	 -0.695728	 0.055356	 4.661248
H	 -0.132039	 -1.586038	 4.501673
C	 -1.158526	 0.603377	 2.022431
H	 0.588730	 -0.437495	 2.543302
H	 -0.694234	 -1.482181	 2.030695
C	 -1.180025	 0.697761	 0.509157
O	 -1.637751	 1.459518	 2.693730
C	 -2.285431	 -0.137488	 -0.145671
H	 -0.209921	 0.373472	 0.157623
H	 -1.304974	 1.741273	 0.232271
C	 -3.646545	 0.082747	 0.508954
H	 -2.348635	 0.118247	 -1.199806
H	 -2.034895	 -1.192387	 -0.096473
C	 -4.757412	 -0.737227	 -0.138149
H	 -3.900211	 1.137405	 0.459735
H	 -3.580878	 -0.166775	 1.564416
H	 -4.867876	 -0.486707	 -1.187777
H	 -4.549650	 -1.800049	 -0.072540
H	 -5.709585	 -0.556397	 0.346597

16 12 15 17 F
