%nprocshared=4
%mem=2GB
#HF/cc-pVTZ nosymm scf=tight opt=ModRedundant

Mol

0 1
O	 -2.054282	 -3.235197	 0.435635
C	 -1.262064	 -3.358921	 -0.441015
C	 -0.443918	 -2.179193	 -0.927766
C	 -1.014189	 -4.694149	 -1.101692
C	 0.791903	 -1.964497	 -0.044875
H	 -1.076967	 -1.301913	 -0.886070
H	 -0.139408	 -2.331802	 -1.957741
C	 1.630207	 -0.772146	 -0.501001
H	 0.459805	 -1.826299	 0.976320
H	 1.409548	 -2.859322	 -0.055034
C	 2.907848	 -0.545876	 0.309149
H	 1.019806	 0.126861	 -0.466727
H	 1.902563	 -0.915235	 -1.543091
C	 3.373802	 0.906639	 0.372125
H	 3.699140	 -1.146831	 -0.127906
H	 2.764321	 -0.923458	 1.318191
H	 3.519798	 1.311927	 -0.623875
H	 4.316899	 0.983758	 0.900700
H	 2.661122	 1.540651	 0.885346
H	 -1.363099	 -4.654260	 -2.128663
H	 -1.539826	 -5.474227	 -0.572774
H	 0.046865	 -4.915074	 -1.132437

12 8 11 15 F
