%nprocshared=4
%mem=2GB
#HF/cc-pVTZ nosymm scf=tight opt=ModRedundant

Mol

0 1
O	 0.685632	 2.143417	 -0.029286
C	 -0.419702	 2.561823	 -0.094365
C	 -1.673644	 1.725706	 -0.093414
O	 -0.702128	 3.851612	 -0.178366
C	 -1.413045	 0.229353	 0.001137
H	 -2.288377	 2.070513	 0.731627
H	 -2.224425	 1.972538	 -0.995176
C	 -2.702562	 -0.586401	 0.000228
H	 -0.847077	 0.020621	 0.902054
H	 -0.783663	 -0.077619	 -0.826626
C	 -3.953810	 0.284959	 -0.000782
H	 -2.717793	 -1.238567	 -0.869075
H	 -2.719108	 -1.238472	 0.869576
H	 -3.983727	 0.924403	 -0.876454
H	 -4.852989	 -0.320147	 -0.001515
H	 -3.985140	 0.924399	 0.874841
C	 0.385007	 4.754571	 -0.189309
H	 0.963031	 4.666511	 0.718634
H	 -0.046904	 5.739519	 -0.261406
H	 1.028283	 4.566680	 -1.036136

9 5 8 12 F
