%nprocshared=1
%mem=2GB
#HF/6-31G* nosymm scf=tight opt=ModRedundant

Mol

0 1
H	 3.893188	 0.355400	 -0.101367
N	 3.092854	 -0.246221	 -0.068770
C	 1.865559	 0.531981	 0.018834
H	 3.199514	 -0.826043	 0.741946
C	 0.645745	 -0.382037	 -0.029944
H	 1.841966	 1.207024	 -0.831236
H	 1.815756	 1.155410	 0.915079
C	 -0.679275	 0.379305	 0.025956
H	 0.698998	 -0.976915	 -0.937203
H	 0.693479	 -1.083846	 0.802235
C	 -1.253244	 0.692392	 -1.357124
H	 -0.537617	 1.310312	 0.572773
H	 -1.407962	 -0.198389	 0.592640
C	 -2.575192	 1.456782	 -1.296521
H	 -0.527470	 1.270643	 -1.924654
H	 -1.398333	 -0.236304	 -1.904964
H	 -2.455401	 2.407081	 -0.783785
H	 -2.956111	 1.664157	 -2.291760
H	 -3.332919	 0.888519	 -0.764244

12 8 5 9 F
