%nprocshared=4
%mem=2GB
#HF/cc-pVTZ nosymm scf=tight opt=ModRedundant

Mol

0 1
O	 -2.071633	 -1.227563	 -0.223463
C	 -1.652164	 -0.152425	 0.058082
C	 -0.327811	 0.006324	 0.778296
C	 -2.402515	 1.108629	 -0.298924
C	 -0.536205	 0.505788	 2.213054
H	 0.208001	 -0.936998	 0.791518
H	 0.261961	 0.725739	 0.224717
C	 0.776590	 0.696059	 2.967108
H	 -1.163458	 -0.194435	 2.758887
H	 -1.077389	 1.445090	 2.178466
C	 0.574908	 1.204722	 4.390396
H	 1.317042	 -0.246145	 2.993302
H	 1.404010	 1.393378	 2.419724
H	 -0.020539	 0.510616	 4.974086
H	 0.064590	 2.161762	 4.394713
H	 1.523935	 1.333373	 4.897543
H	 -3.240910	 0.874416	 -0.936711
H	 -1.747554	 1.818823	 -0.790984
H	 -2.760419	 1.579708	 0.610998

5 3 2 4 F
