%nprocshared=4
%mem=2GB
#HF/6-31G* nosymm scf=tight opt=ModRedundant

Mol

0 1
O	 -2.723086	 0.159885	 0.153516
C	 -1.999293	 -0.489911	 0.845124
C	 -0.763536	 -1.157690	 0.267819
C	 -2.253926	 -0.654709	 2.326805
C	 0.379448	 -0.143569	 0.099626
H	 -1.031858	 -1.564455	 -0.701124
H	 -0.441201	 -1.978695	 0.901914
C	 1.631333	 -0.777471	 -0.511575
H	 0.021243	 0.669685	 -0.521414
H	 0.632161	 0.287471	 1.067143
C	 2.915987	 -0.544314	 0.291766
H	 1.766672	 -0.399098	 -1.523130
H	 1.471257	 -1.849544	 -0.605828
C	 3.373361	 0.914346	 0.347591
H	 3.708709	 -1.142521	 -0.150311
H	 2.780642	 -0.921148	 1.303579
H	 3.506512	 1.320010	 -0.651625
H	 4.322697	 0.999599	 0.867103
H	 2.660624	 1.545032	 0.868198
H	 -2.489605	 -1.693317	 2.543632
H	 -3.079976	 -0.027833	 2.632506
H	 -1.366626	 -0.401522	 2.899867

3 5 8 12 F
