%nprocshared=1
%mem=2GB
#HF/6-31G* nosymm scf=tight opt=ModRedundant

Mol

0 1
H	 -2.646374	 -0.642757	 1.268656
C	 -2.083525	 -0.384536	 0.393091
O	 -0.807605	 -0.127164	 0.768327
F	 -2.118945	 -1.383102	 -0.486752
F	 -2.621877	 0.670592	 -0.209486
C	 0.084052	 0.273579	 -0.209957
C	 -0.619116	 0.101262	 -1.550114
Cl	 1.563504	 -0.698582	 -0.152165
H	 0.367893	 1.306364	 -0.107173
F	 0.169176	 0.477841	 -2.534453
F	 -1.691311	 0.867749	 -1.568379
F	 -0.991275	 -1.138230	 -1.757790

9 6 3 2 F
