%nprocshared=4
%mem=2GB
#HF/cc-pVTZ nosymm scf=tight opt=ModRedundant

Mol

0 1
H	 -4.035662	 -3.144959	 -3.690940
O	 -4.455610	 -3.948526	 -3.446496
C	 -3.550527	 -4.784807	 -2.775129
C	 -3.221896	 -4.315381	 -1.365758
H	 -4.022901	 -5.756899	 -2.731789
H	 -2.635927	 -4.896673	 -3.354304
C	 -2.470598	 -2.987279	 -1.306222
H	 -4.147328	 -4.237695	 -0.802998
H	 -2.625071	 -5.087998	 -0.886947
C	 -2.129193	 -2.564791	 0.121988
H	 -3.069151	 -2.215216	 -1.778086
H	 -1.551219	 -3.067380	 -1.883813
C	 -1.311023	 -1.277304	 0.237018
H	 -3.048897	 -2.457576	 0.691966
H	 -1.572550	 -3.368609	 0.595796
C	 -2.041121	 -0.006551	 -0.194127
H	 -0.999779	 -1.162542	 1.271661
H	 -0.396449	 -1.380764	 -0.342641
C	 -3.489218	 0.042606	 0.286507
H	 -2.022185	 0.066287	 -1.279394
H	 -1.518764	 0.869305	 0.178730
C	 -4.219984	 1.311773	 -0.139038
H	 -4.022855	 -0.824300	 -0.093339
H	 -3.510372	 -0.038577	 1.370031
H	 -4.244251	 1.405725	 -1.219696
H	 -5.244345	 1.313233	 0.215630
H	 -3.732090	 2.196311	 0.257073

10 13 16 20 F
