%nprocshared=1
%mem=2GB
#HF/6-31G* nosymm scf=tight 

Mol

0 1
H	 -0.066720	 2.155416	 -1.201090
C	 0.390238	 2.017934	 -0.213624
C	 0.692068	 0.589600	 0.160137
O	 0.612890	 2.958900	 0.477128
C	 -0.558097	 -0.297372	 0.091132
H	 1.127355	 0.582754	 1.152588
H	 1.439351	 0.214489	 -0.538213
C	 -1.850991	 0.512573	 -0.019058
H	 -0.476753	 -0.965681	 -0.762987
H	 -0.604799	 -0.930658	 0.975228
C	 -3.096943	 -0.368295	 -0.099594
H	 -1.800724	 1.150330	 -0.898172
H	 -1.931651	 1.177355	 0.838044
H	 -3.060452	 -1.020287	 -0.967456
H	 -3.996858	 0.233488	 -0.175704
H	 -3.191959	 -0.995686	 0.782074

9 5 8 12 F
4 2 3 6 F
