%nprocshared=1
%mem=2GB
#HF/6-31G* nosymm scf=tight opt=ModRedundant

Mol

0 1
H	 3.729471	 -0.928294	 -0.070608
O	 2.826016	 -1.159218	 0.122261
C	 2.077727	 -0.067559	 -0.035091
C	 0.624473	 -0.343591	 0.253101
O	 2.542965	 0.974826	 -0.363729
C	 -0.265902	 0.883932	 0.072916
H	 0.324016	 -1.163849	 -0.390541
H	 0.565024	 -0.726111	 1.268924
C	 -1.728698	 0.646073	 0.462102
H	 -0.209144	 1.219470	 -0.958188
H	 0.135059	 1.692851	 0.673903
C	 -1.973372	 -0.591433	 1.330244
H	 -2.309149	 0.547870	 -0.452334
H	 -2.116866	 1.526586	 0.972180
C	 -3.458104	 -0.835595	 1.599379
H	 -1.547495	 -1.463691	 0.838472
H	 -1.455046	 -0.492024	 2.280422
H	 -3.606118	 -1.715799	 2.217155
H	 -4.004858	 -0.985395	 0.672854
H	 -3.907049	 0.009118	 2.114301

12 9 6 10 F
