%nprocshared=1
%mem=2GB
#HF/6-31G* nosymm scf=tight 

Mol

0 1
O	 -2.042549	 -1.228399	 -0.269030
C	 -1.653912	 -0.146171	 0.050137
C	 -0.332303	 0.024011	 0.778412
C	 -2.438579	 1.106236	 -0.272369
C	 0.850493	 -0.304933	 -0.146066
H	 -0.234163	 1.037175	 1.158216
H	 -0.332320	 -0.655831	 1.623242
C	 2.201961	 -0.175629	 0.558098
H	 0.833803	 0.352952	 -1.013242
H	 0.726172	 -1.316576	 -0.520582
C	 3.379486	 -0.510848	 -0.356379
H	 2.315993	 0.837074	 0.938697
H	 2.218127	 -0.832533	 1.424576
H	 3.410257	 0.152309	 -1.216221
H	 3.309938	 -1.529347	 -0.726875
H	 4.323719	 -0.413663	 0.169934
H	 -3.277823	 0.863061	 -0.908988
H	 -1.806773	 1.843019	 -0.759671
H	 -2.802853	 1.554979	 0.648059

11 8 5 9 F
9 5 3 2 F
