%nprocshared=4
%mem=2GB
#HF/cc-pVTZ nosymm scf=tight opt=ModRedundant

Mol

0 1
O	 -2.071633	 -1.227563	 -0.223463
C	 -1.652164	 -0.152425	 0.058082
C	 -0.327811	 0.006324	 0.778296
C	 -2.402515	 1.108629	 -0.298924
C	 -0.266297	 -0.886354	 2.023594
H	 0.493519	 -0.235205	 0.111808
H	 -0.236045	 1.044703	 1.070161
C	 -1.233164	 -0.440307	 3.116498
H	 0.745054	 -0.892651	 2.422120
H	 -0.490692	 -1.906343	 1.730960
C	 -1.184519	 -1.332648	 4.352024
H	 -1.007707	 0.583708	 3.401252
H	 -2.242986	 -0.431314	 2.716849
H	 -0.194359	 -1.334635	 4.795435
H	 -1.436873	 -2.357865	 4.103797
H	 -1.883880	 -0.993144	 5.107029
H	 -3.240910	 0.874416	 -0.936711
H	 -1.747554	 1.818823	 -0.790984
H	 -2.760419	 1.579708	 0.610998

5 3 2 4 F
