%nprocshared=4
%mem=2GB
#HF/cc-pVTZ nosymm scf=tight opt=ModRedundant

Mol

0 1
O	 -1.937843	 -2.246412	 -0.049564
C	 -0.871730	 -1.731924	 -0.026059
C	 0.446622	 -2.463905	 -0.022658
O	 -0.695554	 -0.422406	 0.000602
C	 0.298401	 -3.976541	 -0.053273
H	 0.992202	 -2.138272	 0.856122
H	 1.014924	 -2.105483	 -0.873835
H	 -0.254793	 -4.331160	 0.806051
H	 1.274598	 -4.445980	 -0.049353
H	 -0.231876	 -4.298093	 -0.939635
C	 -1.852370	 0.402254	 0.000718
C	 -3.063338	 -0.501097	 -0.000437
H	 -1.831732	 1.039442	 -0.872158
H	 -1.832493	 1.038301	 0.874430
H	 -3.071944	 -1.133732	 -0.879113
H	 -3.966302	 0.097976	 -0.000483
H	 -3.072764	 -1.134834	 0.877435

2 4 11 13 F
