%nprocshared=4
%mem=2GB
#HF/cc-pVTZ nosymm scf=tight opt=ModRedundant

Mol

0 1
H	 2.341328	 -1.994750	 0.438380
N	 1.360535	 -1.818955	 0.445411
C	 0.866869	 -1.616970	 -0.901934
C	 1.048401	 -0.692292	 1.301592
H	 1.097005	 -2.491469	 -1.498291
H	 1.323898	 -0.751383	 -1.385157
C	 -0.636691	 -1.412524	 -0.862152
H	 1.410079	 -0.896748	 2.301961
H	 1.516899	 0.231716	 0.957589
C	 -0.455397	 -0.489058	 1.338487
H	 -1.112439	 -2.337803	 -0.524345
H	 -0.999579	 -1.202782	 -1.861372
N	 -0.976577	 -0.298712	 -0.000000
H	 -0.687198	 0.388408	 1.930467
H	 -0.918655	 -1.350718	 1.827899
C	 -2.391156	 -0.021003	 -0.000000
H	 -2.853954	 -0.458728	 -0.875714
H	 -2.853954	 -0.458728	 0.875714
H	 -2.614037	 1.049773	 -0.000000

7 13 16 19 F
