%nprocshared=4
%mem=2GB
#HF/cc-pVTZ nosymm scf=tight opt=ModRedundant

Mol

0 1
H	 -3.436473	 1.252944	 -1.023892
O	 -3.458596	 0.315260	 -0.960865
C	 -3.176635	 -0.080824	 0.355601
C	 -1.763371	 0.265266	 0.799691
H	 -3.321825	 -1.153438	 0.379502
H	 -3.895468	 0.357385	 1.043382
C	 -0.705868	 0.045345	 -0.278105
H	 -1.740951	 1.302605	 1.130281
H	 -1.527613	 -0.336441	 1.674194
C	 0.701046	 0.428598	 0.173204
H	 -0.972351	 0.614623	 -1.161747
H	 -0.716359	 -1.000640	 -0.575277
C	 1.755376	 0.201356	 -0.908368
H	 0.701372	 1.470633	 0.478250
H	 0.966490	 -0.148043	 1.056880
C	 3.193421	 0.494809	 -0.477372
H	 1.512384	 0.806824	 -1.778548
H	 1.698909	 -0.833245	 -1.235526
C	 3.480971	 1.962576	 -0.170585
H	 3.861747	 0.168239	 -1.268238
H	 3.437203	 -0.109318	 0.392698
H	 3.240748	 2.592180	 -1.021448
H	 4.529909	 2.108499	 0.061100
H	 2.908584	 2.319839	 0.676966

7 4 3 2 F
