%nprocshared=4
%mem=2GB
#HF/cc-pVTZ nosymm scf=tight opt=ModRedundant

Mol

0 1
H	 -8.148366	 3.301543	 0.370082
C	 -7.799745	 2.309889	 0.050752
C	 -6.662802	 1.747123	 0.859791
O	 -8.307292	 1.773497	 -0.872280
C	 -5.546496	 1.164323	 -0.011921
H	 -6.291785	 2.522020	 1.517982
H	 -7.083187	 0.956674	 1.477667
C	 -4.789956	 2.214817	 -0.822038
H	 -4.851095	 0.634829	 0.630257
H	 -5.965917	 0.418179	 -0.682405
C	 -5.641798	 2.853761	 -1.915610
H	 -3.913204	 1.754062	 -1.269384
H	 -4.415806	 2.991225	 -0.159747
C	 -6.900381	 3.527547	 -1.372262
H	 -5.037082	 3.575553	 -2.455684
H	 -5.927719	 2.092630	 -2.638262
C	 -7.827821	 4.111512	 -2.439380
H	 -6.614724	 4.314215	 -0.677756
H	 -7.459838	 2.800038	 -0.790848
C	 -7.244121	 5.287623	 -3.218572
H	 -8.743922	 4.435874	 -1.955707
H	 -8.114795	 3.326049	 -3.133643
H	 -6.941812	 6.086551	 -2.549005
H	 -6.377675	 4.999038	 -3.801388
H	 -7.976863	 5.694192	 -3.906144

12 8 11 14 F
