%nprocshared=4
%mem=2GB
#HF/cc-pVTZ nosymm scf=tight opt=ModRedundant

Mol

0 1
H	 -0.042927	 -6.063659	 0.966529
C	 0.301261	 -5.056697	 0.762393
C	 -0.870444	 -4.086324	 0.661709
H	 0.978171	 -4.771674	 1.560887
H	 0.872092	 -5.083922	 -0.159793
C	 -0.431676	 -2.658048	 0.374518
H	 -1.442108	 -4.095098	 1.583060
H	 -1.545392	 -4.417493	 -0.124007
N	 -1.563270	 -1.758689	 0.308305
H	 0.222773	 -2.317213	 1.171197
H	 0.164338	 -2.639662	 -0.542821
C	 -1.215959	 -0.382435	 0.027143
H	 -2.215652	 -2.087468	 -0.372592
C	 -2.451944	 0.502410	 -0.038737
H	 -0.565330	 -0.030513	 0.822134
H	 -0.648318	 -0.281711	 -0.902757
C	 -3.752217	 -0.292550	 0.005776
H	 -2.407325	 1.093801	 -0.946480
H	 -2.431979	 1.206234	 0.790023
H	 -3.817783	 -0.982946	 -0.828547
H	 -4.612613	 0.364348	 -0.042306
H	 -3.830160	 -0.871666	 0.919868

15 12 14 18 F
