%nprocshared=4
%mem=2GB
#HF/cc-pVTZ nosymm scf=tight opt=ModRedundant

Mol

0 1
O	 -0.406316	 0.104456	 2.438929
C	 -0.846966	 0.612872	 1.465048
C	 -1.705041	 1.846597	 1.455975
O	 -0.637375	 0.157174	 0.243149
H	 -2.660144	 1.621661	 0.998917
H	 -1.849763	 2.193395	 2.466135
H	 -1.229463	 2.616125	 0.861651
C	 0.162530	 -1.009518	 0.097799
C	 1.587210	 -0.664190	 0.477086
H	 0.096803	 -1.356267	 -0.924704
H	 -0.233803	 -1.785900	 0.736810
C	 1.908893	 -0.868469	 1.955109
H	 1.749408	 0.376578	 0.210196
H	 2.265856	 -1.251850	 -0.133597
C	 3.342723	 -0.483385	 2.303617
H	 1.220690	 -0.278245	 2.554369
H	 1.737394	 -1.905294	 2.220484
H	 3.542722	 -0.634081	 3.357978
H	 3.536411	 0.559770	 2.076231
H	 4.054934	 -1.080314	 1.743752

12 9 8 10 F
