%nprocshared=4
%mem=2GB
#HF/cc-pVTZ nosymm scf=tight opt=ModRedundant

Mol

0 1
O	 -0.711310	 0.830494	 -2.696185
C	 -1.231780	 0.709053	 -1.635150
C	 -0.881910	 -0.448129	 -0.720509
C	 -2.250270	 1.705240	 -1.134094
C	 0.376695	 -0.140025	 0.100361
H	 -0.706072	 -1.316265	 -1.343029
H	 -1.711217	 -0.666738	 -0.056186
C	 1.630207	 -0.772146	 -0.501001
H	 0.486632	 0.935267	 0.162725
H	 0.248225	 -0.501310	 1.117842
C	 2.907848	 -0.545876	 0.309149
H	 1.772784	 -0.391628	 -1.509394
H	 1.468529	 -1.842059	 -0.599744
C	 3.373802	 0.906639	 0.372125
H	 3.699140	 -1.146831	 -0.127906
H	 2.764321	 -0.923458	 1.318191
H	 3.519798	 1.311927	 -0.623875
H	 4.316899	 0.983758	 0.900700
H	 2.661122	 1.540651	 0.885346
H	 -3.222706	 1.225954	 -1.082618
H	 -2.301139	 2.552455	 -1.800583
H	 -2.002358	 2.034874	 -0.131362

6 3 5 8 F
