%nprocshared=4
%mem=2GB
#HF/cc-pVTZ nosymm scf=tight opt=ModRedundant

Mol

0 1
H	 -0.000342	 -0.223902	 -3.352295
C	 -0.027146	 0.371068	 -2.446756
C	 0.024493	 -0.518541	 -1.216015
H	 -0.932586	 0.964979	 -2.449855
H	 0.819708	 1.049865	 -2.473332
N	 -0.042516	 0.263377	 0.000000
H	 -0.822211	 -1.197105	 -1.225584
H	 0.921114	 -1.142847	 -1.255206
C	 0.024493	 -0.518541	 1.216015
H	 0.682568	 0.950412	 0.000000
C	 1.222535	 -0.120664	 2.061700
H	 -0.887426	 -0.344134	 1.777652
H	 0.062007	 -1.592242	 1.013578
H	 1.179347	 0.931922	 2.312219
H	 1.251557	 -0.694324	 2.980819
H	 2.152139	 -0.301577	 1.530908

12 9 6 3 F
