%nprocshared=1
%mem=2GB
#HF/6-31G* nosymm scf=tight 
prop=(read,field)

Mol

0 1
H	 -0.335767	 -1.839531	 0.000000
N	 0.209060	 -1.000370	 0.000000
C	 -0.103163	 -0.021722	 1.047370
C	 -0.103163	 -0.021722	 -1.047370
H	 0.582130	 -0.026446	 1.887338
H	 -1.121256	 -0.089576	 1.427646
C	 0.051382	 1.097312	 0.000000
H	 -1.121256	 -0.089576	 -1.427646
H	 0.582130	 -0.026446	 -1.887338
H	 -0.688379	 1.887191	 0.000000
H	 1.042824	 1.531834	 -0.000000

@grid.dat /N
