%nprocshared=4
%mem=2GB
#HF/cc-pVTZ nosymm scf=tight opt=ModRedundant

Mol

0 1
H	 2.416493	 -0.708526	 0.353417
C	 1.692903	 0.085809	 0.426094
O	 0.462329	 -0.453336	 -0.000137
H	 2.000343	 0.906222	 -0.210005
H	 1.636159	 0.422267	 1.453622
C	 -0.590565	 0.341382	 0.000062
O	 -1.693898	 -0.053880	 0.000252
H	 -0.340426	 1.403822	 0.000200

2 3 6 7 F
