%nprocshared=4
%mem=2GB
#HF/cc-pVTZ nosymm scf=tight opt=ModRedundant

Mol

0 1
H	 -4.355791	 -0.556051	 -0.652104
C	 -3.491617	 -0.496301	 -0.022865
C	 -2.314706	 -0.799218	 -0.513239
H	 -3.613506	 -0.186766	 0.996512
O	 -1.189946	 -0.765863	 0.237511
H	 -2.180000	 -1.102403	 -1.535521
C	 0.026572	 -0.995256	 -0.379403
C	 1.057223	 0.049888	 -0.004615
H	 -0.054361	 -1.010670	 -1.459674
H	 0.397526	 -1.952058	 -0.044198
F	 2.203233	 -0.234060	 -0.590375
F	 0.698147	 1.254887	 -0.392621
F	 1.266440	 0.094219	 1.288722

3 5 7 9 F
