%nprocshared=4
%mem=2GB
#HF/cc-pVTZ nosymm scf=tight opt=ModRedundant

Mol

0 1
O	 -2.071633	 -1.227563	 -0.223463
C	 -1.652164	 -0.152425	 0.058082
C	 -0.327811	 0.006324	 0.778296
C	 -2.402515	 1.108629	 -0.298924
C	 -0.051262	 -1.191146	 1.695361
H	 0.479154	 0.114354	 0.061174
H	 -0.382602	 0.911849	 1.368938
C	 -1.007843	 -1.257449	 2.882284
H	 0.970892	 -1.145031	 2.062472
H	 -0.130139	 -2.101436	 1.110967
C	 -0.744627	 -2.453874	 3.790274
H	 -0.929029	 -0.340865	 3.460371
H	 -2.028980	 -1.300441	 2.514901
H	 0.258693	 -2.420543	 4.201703
H	 -0.847542	 -3.386913	 3.246937
H	 -1.441357	 -2.475465	 4.620035
H	 -3.240910	 0.874416	 -0.936711
H	 -1.747554	 1.818823	 -0.790984
H	 -2.760419	 1.579708	 0.610998

5 3 2 4 F
