%nprocshared=1
%mem=2GB
#HF/6-31G* nosymm scf=tight 

Mol

0 1
O	 2.862325	 1.357334	 0.000267
C	 2.843464	 0.164689	 -0.000222
C	 1.546494	 -0.624492	 -0.000609
C	 4.124123	 -0.644674	 -0.000428
C	 0.291004	 0.242674	 0.000989
H	 1.557904	 -1.283758	 -0.867573
H	 1.558622	 -1.285963	 0.864672
C	 -0.994322	 -0.586602	 0.000262
H	 0.309117	 0.896430	 -0.865270
H	 0.309661	 0.894078	 0.869017
C	 -2.259874	 0.272531	 0.000494
H	 -1.004862	 -1.240012	 -0.870939
H	 -1.005220	 -1.241071	 0.870675
C	 -2.417462	 1.118573	 -1.264177
H	 -2.250437	 0.926139	 0.870969
H	 -3.130879	 -0.370632	 0.113140
C	 -3.683799	 1.974151	 -1.256415
H	 -1.547942	 1.762763	 -1.377210
H	 -2.428548	 0.466204	 -2.134895
H	 -3.687002	 2.661909	 -0.415506
H	 -3.767125	 2.562520	 -2.165029
H	 -4.573914	 1.356122	 -1.179732
H	 4.165367	 -1.288615	 -0.874074
H	 4.976217	 0.020734	 -0.001915
H	 4.166763	 -1.286207	 0.874930

9 5 8 12 F
15 11 14 18 F
1 2 3 6 F
9 5 3 6 F
