%nprocshared=4
%mem=2GB
#HF/6-31G* nosymm scf=tight opt=ModRedundant

Mol

0 1
O	 1.214711	 1.306902	 -0.000018
C	 1.122059	 0.121804	 -0.000188
C	 -0.170150	 -0.657997	 -0.000612
O	 2.172624	 -0.688929	 0.000216
C	 -1.412532	 0.227344	 -0.000452
H	 -0.153702	 -1.313099	 -0.867402
H	 -0.153924	 -1.313811	 0.865644
C	 -1.199853	 1.527741	 -0.777048
H	 -1.692333	 0.452059	 1.024106
H	 -2.245281	 -0.323674	 -0.426375
C	 -2.440173	 2.420251	 -0.783054
H	 -0.363904	 2.075519	 -0.346693
H	 -0.917190	 1.296808	 -1.802154
H	 -2.728146	 2.697072	 0.226944
H	 -2.262732	 3.335132	 -1.339636
H	 -3.285195	 1.913035	 -1.239464
C	 3.452279	 -0.082609	 0.000533
H	 3.583069	 0.529321	 -0.880332
H	 4.163299	 -0.894027	 0.001117
H	 3.582335	 0.529955	 0.881077

9 5 3 6 F
