%nprocshared=4
%mem=2GB
#HF/6-31G* nosymm scf=tight opt=ModRedundant

Mol

0 1
O	 2.759774	 0.525455	 -1.138663
C	 2.701189	 0.057885	 -0.047330
C	 1.904834	 0.615384	 1.107573
O	 3.347903	 -1.046386	 0.304773
C	 1.131727	 1.882070	 0.747119
H	 1.249177	 -0.176710	 1.453829
H	 2.601799	 0.800630	 1.920974
C	 0.402469	 2.519034	 1.934954
H	 0.421316	 1.656150	 -0.042435
H	 1.825385	 2.602996	 0.328159
C	 -0.741855	 1.682061	 2.513842
H	 0.002524	 3.476830	 1.610308
H	 1.120006	 2.743575	 2.722819
C	 -1.507068	 2.406835	 3.622963
H	 -1.432183	 1.418278	 1.714039
H	 -0.357766	 0.743806	 2.907701
C	 -2.649624	 1.577900	 4.212508
H	 -1.906444	 3.341502	 3.232924
H	 -0.815352	 2.680379	 4.418200
C	 -3.411112	 2.310314	 5.316775
H	 -3.341255	 1.302847	 3.419013
H	 -2.251773	 0.645147	 4.606803
H	 -4.214146	 1.697465	 5.714467
H	 -3.851156	 3.231358	 4.944976
H	 -2.753075	 2.569085	 6.141578
C	 4.728119	 -1.109107	 -0.004993
H	 4.882018	 -1.033965	 -1.071845
H	 5.068212	 -2.067527	 0.355250
H	 5.265056	 -0.311663	 0.488280

1 2 4 26 F
