%nprocshared=4
%mem=2GB
#HF/cc-pVTZ nosymm scf=tight opt=ModRedundant

Mol

0 1
H	 -3.258660	 -0.290394	 1.471450
C	 -3.307964	 -0.275695	 0.374072
C	 -2.653809	 0.914422	 -0.273689
O	 -3.855140	 -1.148880	 -0.205112
C	 -1.711681	 1.662088	 0.674502
H	 -2.140136	 0.581696	 -1.166307
H	 -3.456754	 1.581708	 -0.579159
C	 -0.468263	 0.863096	 1.058825
H	 -1.411414	 2.589362	 0.198748
H	 -2.255477	 1.945953	 1.572222
C	 0.466000	 1.625040	 1.994975
H	 0.070010	 0.588342	 0.155565
H	 -0.762215	 -0.071804	 1.528912
C	 1.714564	 0.828054	 2.368001
H	 0.749175	 2.561069	 1.523800
H	 -0.072891	 1.889966	 2.902008
C	 2.641740	 1.518628	 3.369677
H	 2.274174	 0.594716	 1.465131
H	 1.405168	 -0.125654	 2.786356
C	 3.313983	 2.786564	 2.848608
H	 3.412304	 0.813254	 3.664754
H	 2.083850	 1.751560	 4.272898
H	 3.874398	 2.585291	 1.941184
H	 2.594984	 3.566096	 2.627127
H	 4.006740	 3.183012	 3.582012

6 3 2 4 F
