%nprocshared=4
%mem=2GB
#HF/cc-pVTZ nosymm scf=tight opt=ModRedundant

Mol

0 1
H	 0.559871	 -3.346639	 -0.734483
O	 0.921754	 -2.606501	 -0.270875
C	 0.116995	 -1.562917	 -0.451782
C	 0.626018	 -0.337582	 0.258241
O	 -0.869001	 -1.635093	 -1.100198
C	 -0.267326	 0.883135	 0.076490
H	 0.741926	 -0.606795	 1.301289
H	 1.628560	 -0.149021	 -0.112955
C	 -1.726822	 0.642622	 0.463839
H	 -0.210803	 1.217591	 -0.953497
H	 0.129920	 1.693110	 0.675679
C	 -1.947413	 -0.441094	 1.517851
H	 -2.271847	 0.366769	 -0.433995
H	 -2.168592	 1.574845	 0.809159
C	 -3.424698	 -0.709397	 1.786395
H	 -1.468495	 -1.359862	 1.189923
H	 -1.466330	 -0.161179	 2.449604
H	 -3.553504	 -1.482449	 2.535049
H	 -3.933502	 -1.033355	 0.884803
H	 -3.925599	 0.184035	 2.144211

12 9 6 10 F
