%nprocshared=4
%mem=2GB
#HF/cc-pVTZ nosymm scf=tight opt=ModRedundant

Mol

0 1
H	 -3.268214	 -0.875720	 0.463107
C	 -2.806015	 0.000007	 0.024886
N	 -1.391133	 0.000016	 0.301321
H	 -3.029448	 0.000055	 -1.045738
H	 -3.268126	 0.875758	 0.463150
C	 -1.015877	 1.025050	 1.251092
C	 -0.595104	 0.097801	 -0.902966
H	 -1.237876	 2.025097	 0.867069
H	 -1.590524	 0.888639	 2.159529
C	 0.463341	 0.938508	 1.577337
H	 -0.862562	 -0.715534	 -1.567076
H	 -0.788416	 1.034639	 -1.433826
C	 0.884114	 0.011259	 -0.576721
H	 0.730799	 1.751843	 2.241447
H	 0.656653	 0.001670	 2.108197
N	 1.259370	 1.036293	 0.373050
H	 1.458761	 0.147670	 -1.485158
H	 1.106113	 -0.988788	 -0.192698
C	 2.674252	 1.036302	 0.649485
H	 2.921011	 1.854930	 1.313956
H	 3.230286	 1.173341	 -0.269541
H	 3.015755	 0.107827	 1.115819

6 3 2 4 F
