%nprocshared=1
%mem=2GB
#HF/6-31G* nosymm scf=tight opt=ModRedundant

Mol

0 1
O	 1.845249	 1.299068	 -0.052277
C	 1.700933	 0.123500	 -0.153922
C	 0.377766	 -0.602507	 -0.151303
O	 2.713535	 -0.723313	 -0.290601
C	 -0.823008	 0.326187	 0.001381
H	 0.319014	 -1.173671	 -1.073818
H	 0.411918	 -1.336774	 0.648950
C	 -2.149452	 -0.435131	 -0.000098
H	 -0.815352	 1.055639	 -0.802379
H	 -0.723003	 0.891543	 0.922620
C	 -3.368779	 0.488503	 -0.000883
H	 -2.193746	 -1.087250	 -0.871175
H	 -2.195311	 -1.087803	 0.870418
C	 -4.693822	 -0.272754	 -0.001129
H	 -3.325798	 1.139422	 -0.871284
H	 -3.326423	 1.139959	 0.869145
H	 -4.781274	 -0.907928	 -0.878124
H	 -5.538651	 0.408946	 -0.001420
H	 -4.781694	 -0.907783	 0.875984
C	 4.016433	 -0.169225	 -0.310619
H	 4.124444	 0.518072	 -1.137350
H	 4.690216	 -1.003633	 -0.427468
H	 4.222164	 0.351690	 0.613410

9 5 8 12 F
