%nprocshared=4
%mem=2GB
#HF/6-31G* nosymm scf=tight opt=ModRedundant

Mol

0 1
O	 0.625848	 1.349995	 -0.000749
C	 0.486307	 0.169203	 0.000779
C	 1.608116	 -0.841643	 0.000302
O	 -0.698257	 -0.426125	 0.001050
C	 2.990107	 -0.200498	 -0.000684
H	 1.468623	 -1.481519	 -0.865924
H	 1.469683	 -1.481289	 0.866878
H	 3.129736	 0.423364	 -0.875135
H	 3.757882	 -0.966877	 -0.001197
H	 3.130964	 0.423383	 0.873533
C	 -1.187206	 -0.917634	 1.244733
C	 -2.540725	 -1.544210	 0.984540
H	 -1.254724	 -0.097142	 1.946031
H	 -0.483266	 -1.636670	 1.641022
H	 -3.232548	 -0.812628	 0.582884
H	 -2.951715	 -1.933521	 1.910376
H	 -2.456970	 -2.360648	 0.276253

11 4 2 3 F
