%nprocshared=1
%mem=2GB
#HF/6-31G* nosymm scf=tight opt=ModRedundant

Mol

0 1
O	 -2.227725	 1.543935	 -0.485294
C	 -2.062919	 0.392957	 -0.215996
C	 -0.870507	 -0.371638	 -0.763587
C	 -3.006445	 -0.350350	 0.703041
C	 0.402200	 -0.047630	 0.035398
H	 -0.734712	 -0.072734	 -1.797279
H	 -1.059848	 -1.441097	 -0.742731
C	 1.631333	 -0.777471	 -0.511575
H	 0.552996	 1.025694	 0.010472
H	 0.258706	 -0.320779	 1.079690
C	 2.915987	 -0.544314	 0.291766
H	 1.794820	 -0.478128	 -1.545205
H	 1.424613	 -1.845498	 -0.532411
C	 3.373361	 0.914346	 0.347591
H	 3.708709	 -1.142521	 -0.150311
H	 2.780642	 -0.921148	 1.303579
H	 3.506512	 1.320010	 -0.651625
H	 4.322697	 0.999599	 0.867103
H	 2.660624	 1.545032	 0.868198
H	 -3.526657	 -1.123991	 0.144363
H	 -3.728530	 0.334680	 1.125075
H	 -2.457549	 -0.844841	 1.499280

12 8 11 15 F
