%nprocshared=4
%mem=2GB
#HF/cc-pVTZ nosymm scf=tight opt=ModRedundant

Mol

0 1
H	 -0.000342	 -0.223902	 -3.352295
C	 -0.027146	 0.371068	 -2.446756
C	 0.024493	 -0.518541	 -1.216015
H	 -0.932586	 0.964979	 -2.449855
H	 0.819708	 1.049865	 -2.473332
N	 -0.042516	 0.263377	 -0.000000
H	 -0.822211	 -1.197105	 -1.225584
H	 0.921114	 -1.142847	 -1.255206
C	 0.024493	 -0.518541	 1.216015
H	 0.682568	 0.950412	 -0.000000
C	 0.881216	 0.168276	 2.266302
H	 -0.985394	 -0.636534	 1.595032
H	 0.406851	 -1.526919	 1.036579
H	 0.490852	 1.152741	 2.492150
H	 0.906528	 -0.412307	 3.181174
H	 1.903977	 0.283764	 1.920967

12 9 6 3 F
