%nprocshared=4
%mem=2GB
#HF/cc-pVTZ nosymm scf=tight opt=ModRedundant

Mol

0 1
H	 -2.682488	 -1.627643	 3.046010
C	 -2.565272	 -1.207435	 2.068261
C	 -1.406678	 -1.297159	 1.462491
H	 -3.404444	 -0.723592	 1.608384
O	 -1.189946	 -0.765863	 0.237511
H	 -0.561569	 -1.787205	 1.910566
C	 0.026572	 -0.995256	 -0.379403
C	 1.057223	 0.049888	 -0.004615
H	 -0.054361	 -1.010670	 -1.459674
H	 0.397526	 -1.952058	 -0.044198
F	 2.203233	 -0.234060	 -0.590375
F	 0.698147	 1.254887	 -0.392621
F	 1.266440	 0.094219	 1.288722

3 5 7 9 F
