%nprocshared=4
%mem=2GB
#HF/cc-pVTZ nosymm scf=tight opt=ModRedundant

Mol

0 1
O	 -0.406170	 -0.097515	 -2.163538
C	 -0.060472	 -0.593750	 -1.145652
C	 1.140583	 -1.490296	 -0.979723
O	 -0.695554	 -0.422406	 0.000602
C	 1.907488	 -1.719034	 -2.272204
H	 0.787361	 -2.425421	 -0.559334
H	 1.771985	 -1.043585	 -0.219647
H	 1.278451	 -2.179818	 -3.022010
H	 2.755777	 -2.367926	 -2.091385
H	 2.272032	 -0.785417	 -2.679258
C	 -1.852370	 0.402254	 0.000718
C	 -3.063338	 -0.501097	 -0.000437
H	 -1.831732	 1.039442	 -0.872158
H	 -1.832493	 1.038301	 0.874430
H	 -3.071944	 -1.133732	 -0.879113
H	 -3.966302	 0.097976	 -0.000483
H	 -3.072764	 -1.134834	 0.877435

2 4 11 13 F
