%nprocshared=1
%mem=2GB
#HF/6-31G* nosymm scf=tight opt=ModRedundant

Mol

0 1
O	 0.302788	 0.125641	 0.861102
C	 1.122059	 0.121804	 -0.000188
C	 1.119304	 1.012298	 -1.218756
O	 2.172624	 -0.688929	 0.000216
C	 -0.070138	 1.966213	 -1.269877
H	 2.060292	 1.555662	 -1.225890
H	 1.144250	 0.366916	 -2.092607
C	 -0.048747	 2.856020	 -2.513723
H	 -0.073780	 2.582705	 -0.376328
H	 -0.991204	 1.392226	 -1.243797
C	 -1.237697	 3.814047	 -2.573592
H	 0.876512	 3.428300	 -2.535344
H	 -0.042558	 2.233272	 -3.406033
H	 -1.252345	 4.474145	 -1.711206
H	 -1.198406	 4.433224	 -3.464295
H	 -2.177936	 3.270575	 -2.588742
C	 3.452279	 -0.082609	 0.000533
H	 3.583069	 0.529321	 -0.880332
H	 4.163299	 -0.894027	 0.001117
H	 3.582335	 0.529955	 0.881077

1 2 4 17 F
