%nprocshared=4
%mem=2GB
#HF/cc-pVTZ nosymm scf=tight opt=ModRedundant

Mol

0 1
O	 -0.406316	 0.104456	 2.438929
C	 -0.846966	 0.612872	 1.465048
C	 -1.705041	 1.846597	 1.455975
O	 -0.637375	 0.157174	 0.243149
H	 -2.660144	 1.621661	 0.998917
H	 -1.849763	 2.193395	 2.466135
H	 -1.229463	 2.616125	 0.861651
C	 0.162530	 -1.009518	 0.097799
C	 1.587210	 -0.664190	 0.477086
H	 0.096803	 -1.356267	 -0.924704
H	 -0.233803	 -1.785900	 0.736810
C	 2.295141	 0.252889	 -0.516677
H	 2.134458	 -1.599038	 0.562604
H	 1.588330	 -0.211121	 1.463780
C	 3.735218	 0.554579	 -0.115704
H	 2.283547	 -0.210430	 -1.499682
H	 1.742067	 1.180701	 -0.606765
H	 4.214816	 1.203212	 -0.839339
H	 4.323121	 -0.354775	 -0.046152
H	 3.777047	 1.048500	 0.849340

12 9 8 10 F
