%nprocshared=1
%mem=2GB
#HF/6-31G* nosymm scf=tight opt=ModRedundant

Mol

0 1
H	 2.142014	 2.207914	 1.655362
O	 3.005385	 1.977295	 1.344756
C	 3.262118	 0.623821	 1.620892
C	 2.480133	 -0.331147	 0.725759
H	 4.324010	 0.487220	 1.461521
H	 3.061771	 0.404068	 2.668913
C	 0.962370	 -0.252421	 0.907602
H	 2.735102	 -0.120079	 -0.309523
H	 2.817357	 -1.344938	 0.935220
C	 0.209203	 -1.260529	 0.035090
H	 0.626241	 0.753549	 0.672213
H	 0.713394	 -0.429576	 1.954009
C	 -1.309753	 -1.282496	 0.241564
H	 0.427100	 -1.060451	 -1.012448
H	 0.598948	 -2.255288	 0.240646
C	 -2.037799	 -0.007733	 -0.193645
H	 -1.718304	 -2.122606	 -0.316216
H	 -1.527123	 -1.482090	 1.289777
C	 -3.489788	 0.042957	 0.286558
H	 -2.017067	 0.064384	 -1.280144
H	 -1.513726	 0.868678	 0.179924
C	 -4.216917	 1.317354	 -0.141063
H	 -4.025645	 -0.823308	 -0.095450
H	 -3.513059	 -0.038752	 1.371301
H	 -4.239342	 1.411634	 -1.223113
H	 -5.243387	 1.322503	 0.212445
H	 -3.726170	 2.201406	 0.256408

10 13 16 20 F
