%nprocshared=4
%mem=2GB
#HF/cc-pVTZ nosymm scf=tight opt=ModRedundant

Mol

0 1
H	 0.372786	 -3.063731	 -4.270100
O	 1.311417	 -3.054546	 -4.296892
C	 1.799065	 -1.830421	 -3.814203
C	 1.658666	 -1.673376	 -2.307448
H	 2.845903	 -1.802073	 -4.084955
H	 1.312159	 -1.000761	 -4.323160
C	 1.073107	 -0.333157	 -1.868380
H	 1.040492	 -2.483296	 -1.931884
H	 2.644354	 -1.797346	 -1.865352
C	 2.010431	 0.841059	 -2.146730
H	 0.846362	 -0.370990	 -0.808117
H	 0.129219	 -0.166097	 -2.384570
C	 1.444072	 2.217747	 -1.794279
H	 2.943111	 0.688428	 -1.609107
H	 2.266398	 0.835355	 -3.202627
C	 0.264026	 2.670456	 -2.652352
H	 1.128562	 2.200557	 -0.754719
H	 2.238247	 2.958484	 -1.855511
C	 -0.327984	 4.002480	 -2.198869
H	 -0.511035	 1.907530	 -2.626034
H	 0.569088	 2.758529	 -3.690708
C	 -1.503994	 4.459264	 -3.055748
H	 -0.648011	 3.918976	 -1.163887
H	 0.447184	 4.763969	 -2.216497
H	 -2.309993	 3.733254	 -3.033119
H	 -1.901545	 5.405020	 -2.705598
H	 -1.207172	 4.588909	 -4.091335

8 4 3 2 F
