%nprocshared=1
%mem=2GB
#HF/6-31G* nosymm scf=tight opt=ModRedundant

Mol

0 1
H	 2.591676	 2.013956	 0.335017
O	 3.341076	 1.666752	 -0.126416
C	 3.569581	 0.339145	 0.272707
C	 2.539767	 -0.640285	 -0.279495
H	 4.553106	 0.084646	 -0.100901
H	 3.608576	 0.269204	 1.359154
C	 1.088640	 -0.238137	 -0.004953
H	 2.695332	 -0.736613	 -1.350890
H	 2.733065	 -1.618183	 0.158362
C	 0.081308	 -1.268098	 -0.523877
H	 0.891953	 0.725853	 -0.465824
H	 0.945765	 -0.107948	 1.067884
C	 -1.384115	 -0.955680	 -0.199422
H	 0.197289	 -1.370928	 -1.601291
H	 0.328609	 -2.238617	 -0.098865
C	 -1.946120	 0.289247	 -0.891366
H	 -1.988086	 -1.814050	 -0.486191
H	 -1.499420	 -0.852325	 0.878474
C	 -3.437445	 0.499527	 -0.620866
H	 -1.784975	 0.206639	 -1.965293
H	 -1.402691	 1.174128	 -0.568917
C	 -3.999514	 1.745099	 -1.305186
H	 -3.990653	 -0.375762	 -0.954512
H	 -3.601665	 0.572572	 0.452251
H	 -3.879791	 1.687771	 -2.383427
H	 -5.058035	 1.865405	 -1.096157
H	 -3.491383	 2.643014	 -0.964724

8 4 3 2 F
