%nprocshared=4
%mem=2GB
#HF/cc-pVTZ nosymm scf=tight opt=ModRedundant

Mol

0 1
H	 -3.582083	 1.433893	 -0.307250
C	 -2.857486	 0.864309	 0.237581
C	 -2.105997	 -0.000418	 -0.398703
H	 -2.764985	 1.019348	 1.294560
O	 -1.189946	 -0.765863	 0.237511
H	 -2.184461	 -0.157681	 -1.459004
C	 0.026572	 -0.995256	 -0.379403
C	 1.057223	 0.049888	 -0.004615
H	 -0.054361	 -1.010670	 -1.459674
H	 0.397526	 -1.952058	 -0.044198
F	 2.203233	 -0.234060	 -0.590375
F	 0.698147	 1.254887	 -0.392621
F	 1.266440	 0.094219	 1.288722

6 3 5 7 F
