%nprocshared=4
%mem=2GB
#HF/cc-pVTZ nosymm scf=tight opt=ModRedundant

Mol

0 1
H	 -2.644180	 -0.653737	 1.272255
C	 -2.092774	 -0.380414	 0.391915
O	 -0.808934	 -0.154049	 0.752536
F	 -2.163230	 -1.351640	 -0.507133
F	 -2.627232	 0.691260	 -0.169301
C	 -0.338285	 1.141099	 0.733029
C	 -1.327415	 1.998933	 1.518536
Cl	 -0.192936	 1.745872	 -0.927893
H	 0.628487	 1.236752	 1.195467
F	 -0.928602	 3.245109	 1.550372
F	 -1.384945	 1.561301	 2.754045
F	 -2.529464	 1.956660	 1.013024

6 3 2 4 F
