%nprocshared=4
%mem=2GB
#HF/cc-pVTZ nosymm scf=tight opt=ModRedundant

Mol

0 1
O	 -1.284252	 0.799719	 -0.849206
C	 -1.081510	 0.147522	 0.122720
C	 0.327029	 -0.064006	 0.641890
C	 -2.206377	 -0.518079	 0.878973
C	 1.349460	 -0.017068	 -0.500215
H	 0.399029	 -1.014606	 1.159950
H	 0.538021	 0.726928	 1.350471
C	 2.779782	 -0.209014	 -0.009215
H	 1.115007	 -0.782959	 -1.233891
H	 1.259071	 0.936707	 -1.006644
H	 3.481860	 -0.160270	 -0.833072
H	 2.903471	 -1.171535	 0.475559
H	 3.052569	 0.559584	 0.705428
H	 -1.986767	 -1.566556	 1.046969
H	 -3.132128	 -0.416529	 0.333839
H	 -2.306503	 -0.051575	 1.853756

4 2 3 5 F
