%nprocshared=4
%mem=2GB
#HF/cc-pVTZ nosymm scf=tight opt=ModRedundant

Mol

0 1
O	 1.735849	 1.024589	 2.697034
C	 1.515669	 -0.087225	 2.340913
C	 0.239115	 -0.432523	 1.599814
C	 2.498067	 -1.207214	 2.588476
C	 0.376695	 -0.140025	 0.100361
H	 -0.555737	 0.172972	 2.016583
H	 -0.012604	 -1.476961	 1.750318
C	 1.630207	 -0.772146	 -0.501001
H	 -0.510588	 -0.506916	 -0.399987
H	 0.406235	 0.934679	 -0.062232
C	 2.907848	 -0.545876	 0.309149
H	 1.772784	 -0.391628	 -1.509394
H	 1.468529	 -1.842059	 -0.599744
C	 3.373802	 0.906639	 0.372125
H	 3.699140	 -1.146831	 -0.127906
H	 2.764321	 -0.923458	 1.318191
H	 3.519798	 1.311927	 -0.623875
H	 4.316899	 0.983758	 0.900700
H	 2.661122	 1.540651	 0.885346
H	 2.069817	 -1.906773	 3.299262
H	 3.421104	 -0.811850	 2.983773
H	 2.690126	 -1.757226	 1.674042

3 5 8 12 F
