%nprocshared=1
%mem=2GB
#HF/6-31G* nosymm scf=tight 
prop=(read,field)

Mol

0 1
O	 3.226235	 0.970344	 -0.599659
C	 2.701445	 0.057874	 -0.047342
C	 1.245631	 -0.013854	 0.345408
O	 3.348159	 -1.046397	 0.304761
C	 0.455368	 1.231389	 -0.050784
H	 0.838798	 -0.913836	 -0.103714
H	 1.208466	 -0.175345	 1.419762
C	 -0.998637	 1.219474	 0.433181
H	 0.482787	 1.345109	 -1.130338
H	 0.957546	 2.103059	 0.354717
C	 -1.883182	 0.145873	 -0.207187
H	 -1.430951	 2.195391	 0.224820
H	 -1.019390	 1.105705	 1.516063
C	 -3.347391	 0.245571	 0.225423
H	 -1.821927	 0.231687	 -1.291024
H	 -1.510085	 -0.844825	 0.042388
C	 -4.239736	 -0.825581	 -0.404247
H	 -3.732632	 1.230455	 -0.033091
H	 -3.408329	 0.170591	 1.310026
C	 -5.701019	 -0.716669	 0.029909
H	 -4.179241	 -0.752725	 -1.488070
H	 -3.858785	 -1.810770	 -0.143365
H	 -6.307846	 -1.488919	 -0.432690
H	 -6.121919	 0.245467	 -0.248179
H	 -5.798816	 -0.820125	 1.106945
C	 4.728375	 -1.109118	 -0.005005
H	 4.882274	 -1.033976	 -1.071857
H	 5.068467	 -2.067538	 0.355238
H	 5.265312	 -0.311674	 0.488268

@grid.dat /N
