%nprocshared=4
%mem=2GB
#HF/6-31G* nosymm scf=tight opt=ModRedundant

Mol

0 1
O	 -2.052363	 -2.015538	 0.649843
C	 -1.421264	 -1.843794	 -0.348482
C	 -0.889235	 -0.467034	 -0.705952
C	 -1.092736	 -2.984117	 -1.286089
C	 0.379448	 -0.143569	 0.099626
H	 -1.662292	 0.255915	 -0.469244
H	 -0.680017	 -0.402496	 -1.769948
C	 1.631333	 -0.777471	 -0.511575
H	 0.482768	 0.934507	 0.149241
H	 0.263088	 -0.495696	 1.123449
C	 2.915987	 -0.544314	 0.291766
H	 1.766672	 -0.399098	 -1.523130
H	 1.471257	 -1.849544	 -0.605828
C	 3.373361	 0.914346	 0.347591
H	 3.708709	 -1.142521	 -0.150311
H	 2.780642	 -0.921148	 1.303579
H	 3.506512	 1.320010	 -0.651625
H	 4.322697	 0.999599	 0.867103
H	 2.660624	 1.545032	 0.868198
H	 -1.599339	 -2.833639	 -2.235812
H	 -1.411570	 -3.922391	 -0.853918
H	 -0.027017	 -3.016467	 -1.493454

6 3 5 8 F
