%nprocshared=4
%mem=2GB
#HF/cc-pVTZ nosymm scf=tight opt=ModRedundant

Mol

0 1
H	 0.841639	 4.501632	 -1.220439
N	 0.062526	 3.883194	 -1.298760
C	 0.328525	 2.618348	 -0.631774
H	 -0.105913	 3.743665	 -2.273187
C	 -0.891554	 1.710836	 -0.682305
H	 0.571084	 2.834218	 0.403346
H	 1.186189	 2.090089	 -1.050472
C	 -0.678115	 0.376691	 0.025731
H	 -1.731680	 2.237052	 -0.241067
H	 -1.154883	 1.528227	 -1.722399
C	 -1.900706	 -0.535531	 -0.022488
H	 -0.410896	 0.559456	 1.064069
H	 0.169425	 -0.139595	 -0.419238
C	 -3.220513	 0.226854	 0.028039
H	 -1.865036	 -1.134397	 -0.928236
H	 -1.857948	 -1.236381	 0.806820
H	 -3.309098	 0.911849	 -0.808725
H	 -4.066838	 -0.449485	 -0.008086
H	 -3.301685	 0.809374	 0.939860

12 8 11 15 F
