%nprocshared=4
%mem=2GB
#HF/6-31G* nosymm scf=tight opt=ModRedundant

Mol

0 1
H	 2.792027	 -0.683946	 1.225606
O	 3.496748	 -0.706234	 0.594778
C	 3.311021	 -1.786030	 -0.284767
C	 2.176930	 -1.563129	 -1.279191
H	 4.247177	 -1.896629	 -0.816796
H	 3.145296	 -2.707297	 0.272531
C	 0.795799	 -1.440633	 -0.630855
H	 2.392166	 -0.664854	 -1.852027
H	 2.174026	 -2.394573	 -1.982085
C	 -0.326930	 -1.271955	 -1.658399
H	 0.794754	 -0.593964	 0.049965
H	 0.598519	 -2.327656	 -0.028682
C	 -1.740545	 -1.230086	 -1.066555
H	 -0.151261	 -0.365602	 -2.235038
H	 -0.274561	 -2.096177	 -2.366648
C	 -2.037799	 -0.007733	 -0.193645
H	 -2.455162	 -1.252382	 -1.886702
H	 -1.915496	 -2.136742	 -0.489316
C	 -3.489788	 0.042957	 0.286558
H	 -1.814628	 0.897834	 -0.756008
H	 -1.380966	 0.002066	 0.672829
C	 -4.216917	 1.317354	 -0.141063
H	 -4.025645	 -0.823308	 -0.095450
H	 -3.513059	 -0.038752	 1.371301
H	 -4.239342	 1.411634	 -1.223113
H	 -5.243387	 1.322503	 0.212445
H	 -3.726170	 2.201406	 0.256408

20 16 19 22 F
