%nprocshared=1
%mem=2GB
#HF/6-31G* nosymm scf=tight opt=ModRedundant

Mol

0 1
O	 3.225979	 0.970355	 -0.599647
C	 2.701189	 0.057885	 -0.047330
C	 1.245376	 -0.013843	 0.345420
O	 3.347903	 -1.046386	 0.304773
C	 0.455112	 1.231400	 -0.050772
H	 0.838542	 -0.913825	 -0.103701
H	 1.208210	 -0.175333	 1.419774
C	 -0.998893	 1.219485	 0.433193
H	 0.482531	 1.345121	 -1.130325
H	 0.957290	 2.103070	 0.354729
C	 -1.883438	 0.145884	 -0.207175
H	 -1.431207	 2.195402	 0.224832
H	 -1.019646	 1.105716	 1.516076
C	 -2.438547	 -0.852516	 0.810691
H	 -2.710702	 0.627130	 -0.726652
H	 -1.323196	 -0.398910	 -0.963680
C	 -3.319720	 -1.933069	 0.181350
H	 -3.012306	 -0.316197	 1.564613
H	 -1.612016	 -1.326294	 1.338025
C	 -3.873150	 -2.923774	 1.205030
H	 -4.145605	 -1.461323	 -0.346865
H	 -2.746638	 -2.473119	 -0.569453
H	 -4.493252	 -3.676935	 0.728764
H	 -4.480553	 -2.418648	 1.950755
H	 -3.070740	 -3.437728	 1.726818
C	 4.728119	 -1.109107	 -0.004993
H	 4.882018	 -1.033965	 -1.071845
H	 5.068212	 -2.067527	 0.355250
H	 5.265056	 -0.311663	 0.488280

15 11 8 5 F
