%nprocshared=4
%mem=2GB
#HF/cc-pVTZ nosymm scf=tight opt=ModRedundant

Mol

0 1
H	 2.614283	 2.028610	 0.296620
O	 3.358864	 1.662087	 -0.142800
C	 3.565468	 0.338079	 0.273842
C	 5.032856	 -0.015916	 0.463961
H	 3.044606	 0.240465	 1.216792
H	 3.101169	 -0.356147	 -0.423960
C	 5.854329	 0.002330	 -0.823167
H	 5.464234	 0.674008	 1.183041
H	 5.082544	 -1.007114	 0.908321
C	 7.313944	 -0.389922	 -0.598448
H	 5.810050	 0.993161	 -1.262821
H	 5.408607	 -0.680437	 -1.544588
C	 8.166852	 -0.460263	 -1.866460
H	 7.767557	 0.308305	 0.100795
H	 7.339235	 -1.361859	 -0.113506
C	 8.408752	 0.880167	 -2.558178
H	 9.128872	 -0.893274	 -1.606563
H	 7.706589	 -1.150174	 -2.570261
C	 9.344999	 0.772233	 -3.759095
H	 8.827392	 1.582657	 -1.840739
H	 7.465817	 1.306619	 -2.886833
C	 9.585700	 2.108128	 -4.454322
H	 10.296255	 0.358165	 -3.436237
H	 8.932355	 0.064339	 -4.473009
H	 10.028263	 2.828863	 -3.774677
H	 10.255564	 1.996467	 -5.299261
H	 8.656869	 2.530968	 -4.822875

4 3 2 1 F
