%nprocshared=4
%mem=2GB
#HF/cc-pVTZ nosymm scf=tight opt=ModRedundant

Mol

0 1
O	 -4.741559	 3.677983	 3.374923
C	 -3.562142	 3.759984	 3.486103
C	 -2.630085	 2.634875	 3.084568
C	 -2.907686	 5.004973	 4.041002
C	 -2.930863	 2.021940	 1.724174
H	 -1.614819	 3.023858	 3.116108
H	 -2.673335	 1.879345	 3.865793
C	 -4.209462	 2.575272	 1.101179
H	 -3.007589	 0.945660	 1.828327
H	 -2.091567	 2.198693	 1.061246
C	 -4.522687	 1.968502	 -0.263390
H	 -5.046475	 2.396611	 1.772569
H	 -4.126119	 3.655273	 1.001610
C	 -4.575979	 0.443455	 -0.252108
H	 -3.774444	 2.295503	 -0.981245
H	 -5.473685	 2.357585	 -0.618841
C	 -3.198444	 -0.203733	 -0.155488
H	 -5.188426	 0.111805	 0.582073
H	 -5.074633	 0.095020	 -1.152583
H	 -2.687314	 0.097951	 0.752683
H	 -3.271697	 -1.285223	 -0.149687
H	 -2.572781	 0.080823	 -0.994903
H	 -2.221465	 5.423139	 3.312795
H	 -3.662109	 5.735040	 4.290482
H	 -2.329392	 4.760820	 4.925313

9 5 3 6 F
