%nprocshared=4
%mem=2GB
#HF/cc-pVTZ nosymm scf=tight opt=ModRedundant

Mol

0 1
H	 2.919661	 -3.401261	 2.564484
O	 3.485933	 -4.143257	 2.461492
C	 3.100413	 -5.173090	 3.333323
C	 1.812353	 -5.868463	 2.918541
H	 3.914336	 -5.885461	 3.327201
H	 3.010364	 -4.795657	 4.350125
C	 1.756329	 -6.256677	 1.442737
H	 1.683673	 -6.753313	 3.534690
H	 0.984287	 -5.201648	 3.146715
C	 1.685365	 -5.044629	 0.514976
H	 0.894701	 -6.893397	 1.271888
H	 2.636224	 -6.846720	 1.191898
C	 1.701674	 -5.372571	 -0.979160
H	 0.791899	 -4.469842	 0.746415
H	 2.527657	 -4.393766	 0.732672
C	 3.009841	 -5.968591	 -1.496077
H	 0.898021	 -6.074863	 -1.182768
H	 1.467110	 -4.474281	 -1.545914
C	 3.483501	 -7.168232	 -0.679428
H	 3.781425	 -5.201776	 -1.485084
H	 2.898094	 -6.272898	 -2.532375
C	 4.787405	 -7.768073	 -1.195101
H	 3.610487	 -6.868801	 0.357294
H	 2.710250	 -7.931867	 -0.682378
H	 5.589371	 -7.037552	 -1.174452
H	 5.096164	 -8.614511	 -0.592342
H	 4.682460	 -8.112344	 -2.218729

10 13 16 20 F
