%nprocshared=4
%mem=2GB
#HF/cc-pVTZ nosymm scf=tight opt=ModRedundant

Mol

0 1
O	 -2.081319	 -0.951530	 -0.502732
N	 -1.613558	 0.006676	 0.014756
C	 -0.329345	 -0.171618	 0.743966
O	 -2.068523	 1.100482	 -0.024385
C	 0.835904	 0.041968	 -0.213982
H	 -0.346048	 -1.174374	 1.137184
H	 -0.333613	 0.555559	 1.538590
C	 2.177039	 -0.130175	 0.494460
H	 0.754456	 -0.665923	 -1.030569
H	 0.765464	 1.037260	 -0.637266
C	 2.025727	 -0.724716	 1.890205
H	 2.674943	 0.832502	 0.563607
H	 2.821261	 -0.768880	 -0.102567
H	 1.413287	 -0.090087	 2.520968
H	 1.558604	 -1.702413	 1.849962
H	 2.990405	 -0.837314	 2.369663

11 8 5 9 F
