%nprocshared=4
%mem=2GB
#HF/cc-pVTZ nosymm scf=tight opt=ModRedundant

Mol

0 1
O	 -2.081319	 -0.951530	 -0.502732
N	 -1.613558	 0.006676	 0.014756
C	 -0.329345	 -0.171618	 0.743966
O	 -2.068523	 1.100482	 -0.024385
C	 0.835904	 0.041968	 -0.213982
H	 -0.346048	 -1.174374	 1.137184
H	 -0.333613	 0.555559	 1.538590
C	 2.177039	 -0.130175	 0.494460
H	 0.754456	 -0.665923	 -1.030569
H	 0.765464	 1.037260	 -0.637266
C	 3.321290	 -0.385978	 -0.480084
H	 2.110353	 -0.954676	 1.198156
H	 2.392750	 0.758763	 1.079836
H	 3.149298	 -1.288098	 -1.056536
H	 3.432279	 0.437107	 -1.177170
H	 4.260066	 -0.503079	 0.047313

11 8 5 9 F
