%nprocshared=4
%mem=2GB
#HF/cc-pVTZ nosymm scf=tight opt=ModRedundant

Mol

0 1
O	 3.042008	 -0.988224	 0.050560
C	 2.574127	 -2.072921	 -0.023620
C	 3.300766	 -3.312667	 -0.478981
O	 1.317782	 -2.342573	 0.292610
C	 4.760361	 -3.354339	 -0.044125
H	 2.740541	 -4.160576	 -0.103816
H	 3.214114	 -3.354431	 -1.560220
C	 4.962098	 -3.176397	 1.461358
H	 5.315961	 -2.593682	 -0.581507
H	 5.183874	 -4.303532	 -0.348556
C	 4.049683	 -4.028560	 2.342109
H	 4.795896	 -2.130414	 1.701069
H	 6.000141	 -3.381359	 1.713823
C	 4.008812	 -5.493940	 1.916927
H	 4.388481	 -3.963947	 3.373570
H	 3.038769	 -3.631848	 2.327728
C	 3.320443	 -5.718009	 0.573530
H	 3.498920	 -6.075307	 2.681363
H	 5.023617	 -5.882017	 1.867617
C	 3.281978	 -7.184436	 0.156528
H	 2.306245	 -5.330920	 0.621321
H	 3.830590	 -5.139794	 -0.192155
H	 2.787555	 -7.308280	 -0.800129
H	 2.747068	 -7.784515	 0.885147
H	 4.283421	 -7.592074	 0.066251
C	 0.824678	 -3.623490	 -0.043565
H	 -0.139967	 -3.792406	 0.411591
H	 1.544729	 -4.329140	 0.337866
H	 0.731980	 -3.727573	 -1.114467

6 3 2 1 F
