%nprocshared=4
%mem=2GB
#HF/cc-pVTZ nosymm scf=tight opt=ModRedundant

Mol

0 1
H	 -2.412117	 -0.631061	 0.880171
N	 -1.641110	 0.002194	 0.869705
C	 -0.561396	 -0.500007	 0.035200
H	 -1.338680	 0.113938	 1.814896
C	 0.575129	 0.507849	 -0.048832
H	 -0.961424	 -0.669886	 -0.958951
H	 -0.166223	 -1.456435	 0.380886
C	 1.951750	 -0.141983	 0.035101
H	 0.478254	 1.061643	 -0.975981
H	 0.467676	 1.231891	 0.755499
H	 2.101550	 -0.848142	 -0.774949
H	 2.738260	 0.600794	 -0.026526
H	 2.078939	 -0.679792	 0.968824

6 3 5 9 F
