%nprocshared=4
%mem=2GB
#HF/cc-pVTZ nosymm scf=tight opt=ModRedundant

Mol

0 1
H	 -3.078288	 2.603489	 -1.428908
O	 -2.377613	 2.022633	 -1.660975
C	 -1.713781	 1.581322	 -0.506424
C	 -0.593456	 0.649035	 -0.920954
H	 -1.307532	 2.426321	 0.045584
H	 -2.403976	 1.060265	 0.153849
C	 0.196029	 0.106276	 0.266738
H	 0.068122	 1.184873	 -1.594313
H	 -1.020831	 -0.169971	 -1.490598
C	 1.330220	 -0.826136	 -0.155230
H	 0.595044	 0.938078	 0.839108
H	 -0.475471	 -0.430372	 0.933580
C	 2.719700	 -0.407669	 0.328325
H	 1.339388	 -0.911200	 -1.239363
H	 1.119001	 -1.821953	 0.224128
C	 3.241564	 0.893452	 -0.276737
H	 3.418299	 -1.204729	 0.093035
H	 2.711776	 -0.323368	 1.411960
H	 3.254204	 0.841071	 -1.360784
H	 2.634460	 1.745075	 0.005842
H	 4.254264	 1.092401	 0.054971

4 7 10 14 F
