%nprocshared=1
%mem=2GB
#HF/6-31G* nosymm scf=tight opt=ModRedundant

Mol

0 1
H	 2.108074	 -3.393748	 1.560080
C	 2.284180	 -2.497561	 0.973919
C	 1.013122	 -1.657350	 0.858086
H	 3.081098	 -1.939216	 1.457033
H	 2.643737	 -2.807862	 -0.003158
C	 1.217350	 -0.386724	 0.039429
H	 0.656407	 -1.379213	 1.844891
H	 0.226493	 -2.255761	 0.401457
N	 0.000003	 0.397874	 -0.023260
H	 1.984232	 0.223125	 0.509473
H	 1.596240	 -0.648193	 -0.954278
C	 -1.217365	 -0.386708	 0.039277
H	 -0.000031	 1.072115	 0.718656
C	 -2.452633	 0.504241	 -0.042481
H	 -1.215291	 -1.074557	 -0.802042
H	 -1.269739	 -1.003477	 0.942735
C	 -3.758029	 -0.289423	 -0.010781
H	 -2.394220	 1.093569	 -0.952170
H	 -2.440793	 1.210787	 0.785871
H	 -3.816659	 -0.981993	 -0.845726
H	 -4.617837	 0.370165	 -0.069296
H	 -3.847478	 -0.867502	 0.904682

10 6 9 12 F
