%nprocshared=4
%mem=2GB
#HF/cc-pVTZ nosymm scf=tight opt=ModRedundant

Mol

0 1
O	 1.847685	 1.294399	 -0.000201
C	 1.704209	 0.119472	 -0.000093
C	 0.380337	 -0.600947	 -0.000218
O	 2.715427	 -0.733672	 0.000025
C	 -0.824290	 0.329213	 -0.000098
H	 0.371449	 -1.255483	 -0.865638
H	 0.371416	 -1.255779	 0.864974
C	 -2.146151	 -0.432825	 -0.000035
H	 -0.773942	 0.979151	 -0.866308
H	 -0.773832	 0.979042	 0.866197
C	 -3.366283	 0.483552	 0.000591
H	 -2.189292	 -1.084457	 -0.869957
H	 -2.188861	 -1.085075	 0.869438
C	 -4.687436	 -0.278003	 0.000158
H	 -3.325156	 1.134812	 -0.867929
H	 -3.325081	 1.133738	 0.869913
H	 -4.773789	 -0.912105	 -0.876022
H	 -5.531922	 0.401392	 0.000413
H	 -4.773895	 -0.912890	 0.875759
C	 4.020999	 -0.192556	 0.000019
H	 4.182809	 0.412891	 -0.879449
H	 4.692590	 -1.035653	 0.000152
H	 4.182726	 0.413087	 0.879368

1 2 4 20 F
