%nprocshared=4
%mem=2GB
#HF/cc-pVTZ nosymm scf=tight opt=ModRedundant

Mol

0 1
O	 -2.081319	 -0.951530	 -0.502732
N	 -1.613558	 0.006676	 0.014756
C	 -0.329345	 -0.171618	 0.743966
O	 -2.068523	 1.100482	 -0.024385
C	 0.835904	 0.041968	 -0.213982
H	 -0.346048	 -1.174374	 1.137184
H	 -0.333613	 0.555559	 1.538590
C	 0.934828	 1.500625	 -0.652960
H	 1.754086	 -0.260882	 0.275691
H	 0.701832	 -0.597088	 -1.079066
C	 2.089787	 1.740539	 -1.618876
H	 1.057351	 2.133178	 0.221283
H	 0.002630	 1.800207	 -1.122708
H	 3.039504	 1.481244	 -1.164452
H	 1.978059	 1.144045	 -2.517445
H	 2.136808	 2.781294	 -1.915154

9 5 3 2 F
