%nprocshared=1
%mem=2GB
#HF/6-31G* nosymm scf=tight 

Mol

0 1
H	 1.898200	 2.859677	 2.877021
N	 1.060651	 2.312039	 2.830668
C	 0.824609	 1.844099	 1.472418
H	 0.310590	 2.904198	 3.133301
C	 -0.396102	 0.931278	 1.423663
H	 1.701922	 1.286601	 1.158770
H	 0.697582	 2.657924	 0.754120
C	 -0.679275	 0.379305	 0.025956
H	 -0.243188	 0.116335	 2.125318
H	 -1.267110	 1.482748	 1.776595
C	 -1.903357	 -0.536963	 -0.023547
H	 0.191959	 -0.169442	 -0.328552
H	 -0.822615	 1.204711	 -0.669749
C	 -3.225172	 0.228290	 0.028445
H	 -1.867824	 -1.134999	 -0.931459
H	 -1.860449	 -1.239604	 0.805977
H	 -3.313397	 0.915643	 -0.808262
H	 -4.073500	 -0.448134	 -0.008893
H	 -3.306061	 0.809945	 0.942516

6 3 5 9 F
12 8 5 9 F
1 2 3 6 F
