%nprocshared=4
%mem=2GB
#HF/cc-pVTZ nosymm scf=tight opt=ModRedundant

Mol

0 1
H	 -0.556115	 3.923265	 2.434067
O	 0.122764	 3.335798	 2.158022
C	 -0.431315	 2.249496	 1.464220
C	 0.692071	 1.326931	 1.036433
H	 -1.132343	 1.710529	 2.098134
H	 -0.979441	 2.595534	 0.590353
C	 0.196029	 0.106276	 0.266738
H	 1.235278	 1.013163	 1.922263
H	 1.389493	 1.893718	 0.427934
C	 1.330220	 -0.826136	 -0.155230
H	 -0.518576	 -0.434762	 0.879381
H	 -0.344614	 0.431657	 -0.619498
C	 2.719700	 -0.407669	 0.328325
H	 1.339388	 -0.911200	 -1.239363
H	 1.119001	 -1.821953	 0.224128
C	 3.241564	 0.893452	 -0.276737
H	 3.418299	 -1.204729	 0.093035
H	 2.711776	 -0.323368	 1.411960
H	 3.254204	 0.841071	 -1.360784
H	 2.634460	 1.745075	 0.005842
H	 4.254264	 1.092401	 0.054971

4 7 10 14 F
