%nprocshared=4
%mem=2GB
#HF/cc-pVTZ nosymm scf=tight opt=ModRedundant

Mol

0 1
H	 -4.022669	 -0.467479	 0.154292
C	 -2.960734	 -0.311179	 0.160493
C	 -2.451400	 0.959109	 0.361962
C	 -2.106137	 -1.379942	 -0.032881
H	 -3.115334	 1.788195	 0.511990
C	 -1.086698	 1.159167	 0.369798
H	 -2.502128	 -2.364664	 -0.189038
C	 -0.739406	 -1.181230	 -0.025306
H	 -0.675383	 2.135893	 0.524342
C	 -0.225716	 0.089995	 0.176238
H	 -0.074817	 -2.006770	 -0.174757
C	 1.240758	 0.358464	 0.193537
O	 1.968286	 -0.725612	 -0.000027
O	 1.712532	 1.432641	 0.363107
C	 3.373556	 -0.568203	 0.000011
H	 3.695416	 -0.031588	 -0.879663
H	 3.782700	 -1.565294	 -0.000152
H	 3.695405	 -0.031851	 0.879862

12 13 15 16 F
