%nprocshared=4
%mem=2GB
#HF/cc-pVTZ nosymm scf=tight opt=ModRedundant

Mol

0 1
H	 2.867672	 -0.456275	 0.875795
C	 2.403497	 -0.020426	 0.000000
N	 0.989899	 -0.304564	 0.000000
H	 2.867672	 -0.456275	 -0.875795
H	 2.620366	 1.051270	 0.000000
C	 0.616906	 -1.257057	 1.025281
C	 0.512452	 -0.737395	 -1.297023
H	 1.119075	 -2.218464	 0.879446
H	 0.916729	 -0.874057	 1.993860
C	 -0.884135	 -1.473770	 1.012913
H	 0.735634	 0.026898	 -2.032396
H	 1.006765	 -1.659716	 -1.617530
C	 -0.985905	 -0.967460	 -1.249722
H	 -1.161008	 -2.250540	 1.711910
H	 -1.386798	 -0.553319	 1.303084
O	 -1.324908	 -1.880642	 -0.248562
H	 -1.336341	 -1.378250	 -2.186244
H	 -1.493834	 -0.020809	 -1.076636

6 3 2 5 F
