%nprocshared=4
%mem=2GB
#HF/cc-pVTZ nosymm scf=tight opt=ModRedundant

Mol

0 1
H	 -2.644180	 -0.653737	 1.272255
C	 -2.092774	 -0.380414	 0.391915
O	 -0.808934	 -0.154049	 0.752536
F	 -2.163230	 -1.351640	 -0.507133
F	 -2.627232	 0.691260	 -0.169301
C	 0.028216	 -1.235870	 0.920298
C	 0.828924	 -1.000487	 2.198868
Cl	 1.125973	 -1.417772	 -0.460781
H	 -0.509135	 -2.161817	 1.027646
F	 1.637532	 -2.004620	 2.424463
F	 -0.000120	 -0.913680	 3.212014
F	 1.530026	 0.098678	 2.148448

6 3 2 4 F
