%nprocshared=1
%mem=2GB
#HF/6-31G* nosymm scf=tight opt=ModRedundant

Mol

0 1
O	 1.186239	 3.985224	 1.324856
C	 0.259259	 4.216398	 2.039015
C	 -1.008975	 3.382163	 2.015073
C	 0.289576	 5.367416	 3.023594
C	 -0.982526	 2.239411	 1.004305
H	 -1.176621	 3.001805	 3.021856
H	 -1.844780	 4.051973	 1.817120
C	 -2.275539	 1.422187	 1.009343
H	 -0.136862	 1.593840	 1.219294
H	 -0.806009	 2.645141	 0.013158
C	 -2.259874	 0.272531	 0.000494
H	 -2.448239	 1.021186	 2.007051
H	 -3.119672	 2.075965	 0.794681
C	 -3.549786	 -0.549746	 -0.000374
H	 -1.416840	 -0.382059	 0.214563
H	 -2.088168	 0.672303	 -0.997352
C	 -4.809590	 0.315458	 -0.000369
H	 -3.560515	 -1.202009	 -0.871156
H	 -3.561123	 -1.202955	 0.869711
H	 -4.844746	 0.956611	 -0.876632
H	 -5.706986	 -0.295590	 -0.001609
H	 -4.845960	 0.954827	 0.877144
H	 0.151503	 5.002779	 4.037297
H	 1.236497	 5.884143	 2.951701
H	 -0.519213	 6.062667	 2.818363

15 11 14 18 F
