%nprocshared=4
%mem=2GB
#HF/cc-pVTZ nosymm scf=tight opt=ModRedundant

Mol

0 1
O	 2.868453	 1.353349	 -0.000734
C	 2.841259	 0.166180	 -0.000295
C	 1.542794	 -0.614730	 -0.000853
C	 4.113372	 -0.651103	 0.000743
C	 0.288398	 0.247429	 0.000314
H	 1.557171	 -1.273139	 -0.866508
H	 1.557484	 -1.274998	 0.863344
C	 0.451035	 1.518635	 0.828984
H	 -0.543274	 -0.335538	 0.379242
H	 0.032350	 0.503844	 -1.021363
C	 -0.800079	 2.392105	 0.838617
H	 0.710123	 1.253852	 1.851744
H	 1.288084	 2.097247	 0.444511
C	 -0.645519	 3.665252	 1.665625
H	 -1.637293	 1.814670	 1.223008
H	 -1.059416	 2.657956	 -0.183242
C	 -1.899777	 4.532780	 1.670507
H	 -0.387452	 3.400439	 2.687493
H	 0.190316	 4.243696	 1.281305
H	 -2.746696	 3.993706	 2.081805
H	 -1.756792	 5.427290	 2.265846
H	 -2.164507	 4.843404	 0.665283
H	 4.145311	 -1.294584	 -0.871587
H	 4.970080	 0.004978	 -0.000091
H	 4.145223	 -1.291980	 0.874988

9 5 3 6 F
