%nprocshared=4
%mem=2GB
#HF/cc-pVTZ nosymm scf=tight opt=ModRedundant

Mol

0 1
H	 0.559871	 -3.346639	 -0.734483
O	 0.921754	 -2.606501	 -0.270875
C	 0.116995	 -1.562917	 -0.451782
C	 0.626018	 -0.337582	 0.258241
O	 -0.869001	 -1.635093	 -1.100198
C	 -0.267326	 0.883135	 0.076490
H	 0.741926	 -0.606795	 1.301289
H	 1.628560	 -0.149021	 -0.112955
C	 -1.726822	 0.642622	 0.463839
H	 -0.210803	 1.217591	 -0.953497
H	 0.129920	 1.693110	 0.675679
C	 -2.383354	 -0.565540	 -0.202007
H	 -2.294525	 1.530965	 0.203430
H	 -1.803413	 0.542990	 1.544420
C	 -3.864378	 -0.693627	 0.139514
H	 -2.268100	 -0.484875	 -1.279617
H	 -1.874901	 -1.478076	 0.092457
H	 -4.306109	 -1.555908	 -0.346312
H	 -4.416322	 0.184493	 -0.178231
H	 -4.010807	 -0.805531	 1.208715

12 9 6 10 F
