%nprocshared=4
%mem=2GB
#HF/cc-pVTZ nosymm scf=tight opt=ModRedundant

Mol

0 1
H	 -3.162190	 0.493205	 -0.000107
C	 -2.363908	 -0.234727	 0.000005
O	 -1.158738	 0.454634	 -0.000087
H	 -2.464314	 -0.863616	 -0.882153
H	 -2.464327	 -0.863359	 0.882345
C	 -0.028611	 -0.359694	 0.000037
C	 1.212847	 0.509314	 -0.000053
H	 -0.034155	 -1.007047	 -0.877198
H	 -0.034195	 -1.006836	 0.877430
C	 2.432857	 -0.218093	 0.553846
H	 1.403587	 0.839064	 -1.015340
H	 1.011243	 1.399683	 0.585225
H	 2.667193	 -1.100294	 -0.032579
H	 3.304291	 0.424935	 0.542069
H	 2.272345	 -0.535661	 1.578763

11 7 6 8 F
