%nprocshared=4
%mem=2GB
#HF/cc-pVTZ nosymm scf=tight opt=ModRedundant

Mol

0 1
H	 -3.258660	 -0.290394	 1.471450
C	 -3.307964	 -0.275695	 0.374072
C	 -2.653809	 0.914422	 -0.273689
O	 -3.855140	 -1.148880	 -0.205112
C	 -3.405828	 1.401028	 -1.516007
H	 -2.555569	 1.698432	 0.465914
H	 -1.653289	 0.599685	 -0.562141
C	 -4.777183	 1.998006	 -1.207482
H	 -2.794480	 2.142966	 -2.018125
H	 -3.515435	 0.576498	 -2.216243
C	 -5.509644	 2.488281	 -2.453640
H	 -4.656164	 2.823370	 -0.510893
H	 -5.392522	 1.262023	 -0.696489
C	 -6.875747	 3.095780	 -2.140660
H	 -4.886852	 3.216355	 -2.963918
H	 -5.637807	 1.657792	 -3.144408
C	 -7.682761	 3.527202	 -3.366427
H	 -6.745675	 3.949661	 -1.479787
H	 -7.459235	 2.368549	 -1.583005
C	 -7.078793	 4.688516	 -4.152339
H	 -8.677937	 3.810461	 -3.038128
H	 -7.814251	 2.674432	 -4.027335
H	 -6.929630	 5.554165	 -3.514845
H	 -6.121248	 4.429887	 -4.588119
H	 -7.734383	 4.985814	 -4.962758

6 3 2 4 F
