%nprocshared=4
%mem=2GB
#HF/cc-pVTZ nosymm scf=tight opt=ModRedundant

Mol

0 1
O	 -2.071633	 -1.227563	 -0.223463
C	 -1.652164	 -0.152425	 0.058082
C	 -0.327811	 0.006324	 0.778296
C	 -2.402515	 1.108629	 -0.298924
C	 0.819368	 -0.605691	 -0.034626
H	 -0.126079	 1.055590	 0.966630
H	 -0.409985	 -0.501427	 1.730805
C	 0.731640	 -2.126349	 -0.124813
H	 1.772712	 -0.328483	 0.408076
H	 0.804590	 -0.178880	 -1.031611
C	 1.863524	 -2.738430	 -0.942956
H	 0.740676	 -2.547931	 0.876542
H	 -0.222268	 -2.402723	 -0.564376
H	 2.830434	 -2.508548	 -0.507900
H	 1.860468	 -2.359316	 -1.959141
H	 1.771325	 -3.817092	 -0.991829
H	 -3.240910	 0.874416	 -0.936711
H	 -1.747554	 1.818823	 -0.790984
H	 -2.760419	 1.579708	 0.610998

5 3 2 4 F
