%nprocshared=4
%mem=2GB
#HF/cc-pVTZ nosymm scf=tight opt=ModRedundant

Mol

0 1
O	 0.242832	 0.085791	 2.106203
C	 0.014942	 0.575551	 1.037129
C	 -0.997056	 1.696493	 0.918040
N	 0.622280	 0.144970	 -0.099307
H	 -1.805875	 1.428486	 0.249960
H	 -1.393813	 1.878359	 1.902926
H	 -0.538629	 2.603919	 0.544679
C	 1.664396	 -0.854993	 0.000772
C	 0.550664	 0.837149	 -1.364026
H	 2.462727	 -0.615153	 -0.690869
H	 1.261798	 -1.821849	 -0.240651
H	 2.081615	 -0.891605	 1.003877
H	 0.589721	 0.113715	 -2.168237
H	 -0.369124	 1.387190	 -1.465720
H	 1.380743	 1.527379	 -1.496671

2 4 8 10 F
