%nprocshared=4
%mem=2GB
#HF/cc-pVTZ nosymm scf=tight opt=ModRedundant

Mol

0 1
H	 5.269878	 0.195679	 1.068175
C	 4.673900	 -0.208485	 0.258034
C	 3.190199	 -0.204714	 0.610086
H	 4.865136	 0.391893	 -0.624684
H	 5.027838	 -1.214511	 0.056939
C	 2.319208	 -0.778154	 -0.505491
H	 2.876954	 0.809861	 0.827925
H	 3.035335	 -0.782733	 1.518235
C	 1.552098	 -2.034316	 -0.104883
H	 1.614736	 -0.025899	 -0.838145
H	 2.948602	 -1.020402	 -1.356939
C	 0.401046	 -1.794930	 0.857540
H	 1.116849	 -2.497422	 -0.986844
H	 2.219504	 -2.778948	 0.318923
C	 -0.148718	 -2.995795	 1.602559
O	 -0.069989	 -0.714212	 1.010674
C	 -0.776055	 -4.054488	 0.689333
H	 -0.884404	 -2.624510	 2.303096
H	 0.659898	 -3.445340	 2.172862
C	 -1.404133	 -5.202516	 1.474966
H	 -1.535626	 -3.585995	 0.069526
H	 -0.027405	 -4.455280	 0.013397
C	 -2.038819	 -6.259819	 0.578076
H	 -2.154674	 -4.804224	 2.151075
H	 -0.645550	 -5.666237	 2.099536
H	 -2.823441	 -5.831653	 -0.036515
H	 -1.304318	 -6.703267	 -0.085944
H	 -2.477595	 -7.057976	 1.165215

10 6 3 2 F
