%nprocshared=4
%mem=2GB
#HF/cc-pVTZ nosymm scf=tight opt=ModRedundant

Mol

0 1
O	 -2.817697	 1.304178	 0.001046
C	 -2.664672	 0.129869	 0.003507
C	 -3.797908	 -0.860100	 -0.001145
O	 -1.481217	 -0.452708	 0.001092
H	 -4.408836	 -0.679689	 -0.875387
H	 -3.443486	 -1.878443	 -0.002770
H	 -4.412123	 -0.683688	 0.871605
C	 -0.332055	 0.384012	 -0.000250
C	 0.892252	 -0.506059	 -0.000295
H	 -0.360822	 1.020205	 -0.874146
H	 -0.359817	 1.021310	 0.872861
C	 0.568228	 -1.928846	 0.445852
H	 1.641574	 -0.073726	 0.654895
H	 1.318273	 -0.518466	 -0.998302
C	 1.788427	 -2.845462	 0.453236
H	 0.132659	 -1.906227	 1.441717
H	 -0.190748	 -2.350063	 -0.208752
C	 1.464840	 -4.267643	 0.897873
H	 2.546898	 -2.426502	 1.108407
H	 2.224457	 -2.868988	 -0.541456
H	 1.058415	 -4.280414	 1.903607
H	 2.351024	 -4.891460	 0.891802
H	 0.733221	 -4.726213	 0.241138

13 9 8 10 F
