%nprocshared=1
%mem=2GB
#HF/6-31G* nosymm scf=tight 

Mol

0 1
H	 -3.420663	 1.227371	 -1.044276
O	 -3.452007	 0.283848	 -0.965577
C	 -3.181085	 -0.079926	 0.364119
C	 -1.765924	 0.277073	 0.805136
H	 -3.327791	 -1.152017	 0.410903
H	 -3.905698	 0.375695	 1.036898
C	 -0.677594	 -0.417312	 -0.014550
H	 -1.637766	 1.358238	 0.744969
H	 -1.659588	 0.017670	 1.857098
C	 0.738335	 -0.034840	 0.421385
H	 -0.814977	 -0.178223	 -1.064632
H	 -0.802730	 -1.495410	 0.071702
C	 1.816273	 -0.579637	 -0.519534
H	 0.809658	 1.048609	 0.480301
H	 0.920420	 -0.407984	 1.428466
C	 3.256605	 -0.297996	 -0.076501
H	 1.662064	 -0.171928	 -1.517376
H	 1.687527	 -1.656266	 -0.609596
C	 3.645431	 1.181599	 -0.080787
H	 3.931496	 -0.837071	 -0.736963
H	 3.413834	 -0.709798	 0.918437
H	 3.486635	 1.623703	 -1.060821
H	 4.694501	 1.305216	 0.170228
H	 3.069915	 1.755256	 0.638145

20 16 13 17 F
17 13 10 7 F
11 7 4 3 F
1 2 3 5 F
7 4 3 2 F
