%nprocshared=4
%mem=2GB
#HF/cc-pVTZ nosymm scf=tight opt=ModRedundant

Mol

0 1
H	 0.010765	 -0.305595	 0.666595
N	 -0.625934	 -0.663929	 -0.000707
C	 -1.978635	 -0.158664	 0.001017
C	 -0.178572	 -1.600336	 -0.866496
H	 -2.519057	 -0.493535	 -0.876362
H	 -1.938890	 0.917202	 -0.004137
H	 -2.514266	 -0.485137	 0.884506
C	 1.275584	 -1.978466	 -0.689663
O	 -0.864932	 -2.093004	 -1.712229
H	 1.443902	 -2.380047	 0.302809
H	 1.535992	 -2.720682	 -1.426121
H	 1.910966	 -1.109110	 -0.812666

4 2 3 5 F
