%nprocshared=1
%mem=2GB
#HF/6-31G* nosymm scf=tight 

Mol

0 1
H	 3.893188	 0.355400	 -0.101367
N	 3.092854	 -0.246221	 -0.068770
C	 1.865559	 0.531981	 0.018834
H	 3.199514	 -0.826043	 0.741946
C	 0.645745	 -0.382037	 -0.029944
H	 1.841966	 1.207024	 -0.831236
H	 1.815756	 1.155410	 0.915079
C	 -0.679275	 0.379305	 0.025956
H	 0.698998	 -0.976915	 -0.937203
H	 0.693479	 -1.083846	 0.802235
C	 -0.569317	 1.728851	 0.738002
H	 -1.425295	 -0.231589	 0.532030
H	 -1.051294	 0.538189	 -0.985086
C	 -1.896540	 2.484317	 0.795109
H	 -0.199060	 1.572485	 1.748781
H	 0.173622	 2.342518	 0.232919
H	 -2.651812	 1.910435	 1.324769
H	 -1.786290	 3.435934	 1.305866
H	 -2.276077	 2.686581	 -0.202604

6 3 5 9 F
12 8 11 15 F
1 2 3 6 F
