%nprocshared=1
%mem=2GB
#HF/6-31G* nosymm scf=tight opt=ModRedundant

Mol

0 1
H	 4.175065	 -2.816283	 -0.539564
C	 3.740505	 -2.108549	 -1.238701
C	 2.326130	 -1.712819	 -0.816662
H	 4.392025	 -1.240639	 -1.278643
H	 3.743510	 -2.570717	 -2.222160
C	 1.680792	 -0.719805	 -1.785824
H	 2.356941	 -1.279666	 0.177838
H	 1.707068	 -2.606276	 -0.751938
C	 0.257096	 -0.318850	 -1.399053
H	 2.292377	 0.173032	 -1.852523
H	 1.653663	 -1.160232	 -2.779972
C	 0.169600	 0.576866	 -0.172154
H	 -0.205016	 0.230871	 -2.217606
H	 -0.366109	 -1.197167	 -1.246243
C	 -1.181045	 0.701995	 0.511084
O	 1.119224	 1.176942	 0.233468
C	 -2.285934	 -0.139295	 -0.145128
H	 -1.449051	 1.751551	 0.493206
H	 -1.071135	 0.403303	 1.551943
C	 -3.651768	 0.085446	 0.506485
H	 -2.346596	 0.110469	 -1.202272
H	 -2.034737	 -1.195320	 -0.088721
C	 -4.759797	 -0.746382	 -0.137905
H	 -3.908762	 1.140117	 0.445781
H	 -3.588286	 -0.154158	 1.565709
H	 -4.868882	 -0.505166	 -1.191300
H	 -4.548009	 -1.809175	 -0.062213
H	 -5.715422	 -0.564821	 0.343442

16 12 15 17 F
