%nprocshared=4
%mem=2GB
#HF/6-31G* nosymm scf=tight opt=ModRedundant

Mol

0 1
H	 -2.646374	 -0.642757	 1.268656
C	 -2.083525	 -0.384536	 0.393091
O	 -0.807605	 -0.127164	 0.768327
F	 -2.118945	 -1.383102	 -0.486752
F	 -2.621877	 0.670592	 -0.209486
C	 0.084052	 0.273579	 -0.209957
C	 1.483128	 -0.017455	 0.317345
Cl	 -0.102267	 1.998711	 -0.565516
H	 -0.049200	 -0.265864	 -1.131379
F	 2.390278	 0.328200	 -0.571328
F	 1.594322	 -1.313055	 0.532970
F	 1.729872	 0.612897	 1.439729

9 6 3 2 F
