%nprocshared=4
%mem=2GB
#HF/cc-pVTZ nosymm scf=tight opt=ModRedundant

Mol

0 1
H	 1.651322	 -0.822465	 0.000000
O	 0.729993	 -1.034364	 0.000000
C	 0.037305	 0.100061	 0.000000
C	 -0.661385	 0.332065	 1.306171
O	 -0.001174	 0.818134	 -0.937916
H	 -1.333977	 -0.491700	 1.507417
H	 -1.208958	 1.258906	 1.263114
H	 0.067915	 0.364306	 2.105265

4 3 2 1 F
