%nprocshared=4
%mem=2GB
#HF/cc-pVTZ nosymm scf=tight opt=ModRedundant

Mol

0 1
H	 -0.419049	 -1.452104	 -0.562010
N	 -0.625934	 -0.663929	 -0.000707
C	 -1.978635	 -0.158664	 0.001017
C	 0.376272	 -0.120333	 0.725012
H	 -2.519057	 -0.493535	 -0.876362
H	 -1.938890	 0.917202	 -0.004137
H	 -2.514266	 -0.485137	 0.884506
C	 1.711838	 -0.814832	 0.574170
O	 0.230401	 0.828687	 1.437163
H	 2.037931	 -0.787108	 -0.459026
H	 2.438077	 -0.314547	 1.193330
H	 1.635138	 -1.853319	 0.874640

4 2 3 5 F
