%nprocshared=4
%mem=2GB
#HF/cc-pVTZ nosymm scf=tight opt=ModRedundant

Mol

0 1
H	 -2.149496	 -2.244167	 0.000000
O	 -2.454378	 -1.354528	 0.000000
C	 -1.430628	 -0.482077	 0.000000
C	 -0.193548	 -0.947895	 -0.421091
C	 -1.573480	 0.830528	 0.397343
H	 -0.103127	 -1.971553	 -0.726012
C	 0.889563	 -0.099217	 -0.441691
H	 -2.524692	 1.204071	 0.725385
C	 -0.470790	 1.673730	 0.370604
H	 1.842451	 -0.467276	 -0.768609
C	 0.764887	 1.221371	 -0.046427
C	 -0.629278	 3.045565	 0.788047
H	 1.606095	 1.884030	 -0.061449
N	 -0.756746	 4.117687	 1.115140

5 3 2 1 F
