%nprocshared=4
%mem=2GB
#HF/6-31G* nosymm scf=tight opt=ModRedundant

Mol

0 1
H	 0.928054	 0.743465	 -1.946138
O	 1.194264	 1.252618	 -1.192648
C	 0.709265	 0.639550	 -0.033818
C	 -0.793441	 0.596080	 0.058728
H	 1.109082	 1.207312	 0.798645
H	 1.102391	 -0.371995	 0.062376
C	 -1.530462	 -0.493172	 -0.025500
H	 -1.268471	 1.554324	 0.202247
H	 -1.092586	 -1.461565	 -0.186463
H	 -2.602122	 -0.450675	 0.050101

5 3 4 7 F
