%nprocshared=1
%mem=2GB
#HF/6-31G* nosymm scf=tight 

Mol

0 1
H	 -2.646257	 1.692711	 -1.480502
O	 -2.605349	 2.081887	 -0.617530
C	 -1.292718	 2.002635	 -0.143523
C	 -0.793441	 0.596080	 0.058728
H	 -1.280069	 2.532988	 0.801871
H	 -0.609268	 2.532335	 -0.806350
C	 -1.530462	 -0.493172	 -0.025500
H	 0.256809	 0.515249	 0.293084
H	 -1.092586	 -1.461565	 -0.186463
H	 -2.602122	 -0.450675	 0.050101

5 3 2 1 F
5 3 4 7 F
