%nprocshared=4
%mem=2GB
#HF/cc-pVTZ nosymm scf=tight opt=ModRedundant

Mol

0 1
H	 -2.644180	 -0.653737	 1.272255
C	 -2.092774	 -0.380414	 0.391915
O	 -0.808934	 -0.154049	 0.752536
F	 -2.163230	 -1.351640	 -0.507133
F	 -2.627232	 0.691260	 -0.169301
C	 -0.408917	 -0.511671	 2.021943
C	 -0.832684	 -1.961727	 2.243391
Cl	 -1.151900	 0.533656	 3.247017
H	 0.657423	 -0.451078	 2.151917
F	 -0.467255	 -2.369391	 3.432212
F	 -0.236839	 -2.721184	 1.354848
F	 -2.121530	 -2.124628	 2.122604

6 3 2 4 F
