%nprocshared=4
%mem=2GB
#HF/cc-pVTZ nosymm scf=tight opt=ModRedundant

Mol

0 1
O	 0.363037	 -1.786418	 2.790257
C	 0.173696	 -2.100965	 1.660371
C	 -0.568258	 -1.184672	 0.707501
C	 0.675368	 -3.414548	 1.109380
C	 0.376695	 -0.140025	 0.100361
H	 -1.346515	 -0.686286	 1.271450
H	 -1.035922	 -1.762474	 -0.082626
C	 1.630207	 -0.772146	 -0.501001
H	 -0.168401	 0.413253	 -0.653948
H	 0.669900	 0.576611	 0.863750
C	 2.907848	 -0.545876	 0.309149
H	 1.772784	 -0.391628	 -1.509394
H	 1.468529	 -1.842059	 -0.599744
C	 3.373802	 0.906639	 0.372125
H	 3.699140	 -1.146831	 -0.127906
H	 2.764321	 -0.923458	 1.318191
H	 3.519798	 1.311927	 -0.623875
H	 4.316899	 0.983758	 0.900700
H	 2.661122	 1.540651	 0.885346
H	 -0.172361	 -4.052782	 0.881320
H	 1.309887	 -3.903306	 1.832617
H	 1.217490	 -3.259313	 0.183315

3 5 8 12 F
