%nprocshared=4
%mem=2GB
#HF/cc-pVTZ nosymm scf=tight opt=ModRedundant

Mol

0 1
H	 1.590656	 -1.439680	 1.507901
C	 1.749223	 -0.439246	 1.084060
C	 0.508571	 0.398549	 0.943772
O	 2.836309	 -0.094566	 0.772493
C	 -0.554654	 -0.292621	 0.086567
H	 0.787666	 1.357778	 0.528055
H	 0.113555	 0.565150	 1.943815
C	 -1.846385	 0.513195	 -0.016346
H	 -0.155115	 -0.462764	 -0.909103
H	 -0.775202	 -1.272763	 0.501720
C	 -3.089953	 -0.365049	 -0.098564
H	 -1.798267	 1.154820	 -0.891143
H	 -1.925398	 1.173265	 0.842889
H	 -3.055079	 -1.012299	 -0.968245
H	 -3.988403	 0.236438	 -0.170014
H	 -3.183055	 -0.995885	 0.779079

9 5 8 12 F
