%nprocshared=4
%mem=2GB
#HF/cc-pVTZ nosymm scf=tight opt=ModRedundant

Mol

0 1
H	 -8.026527	 5.294698	 -1.665254
C	 -6.966667	 5.467444	 -1.433431
C	 -6.124069	 5.897477	 -2.603470
O	 -6.567530	 5.302991	 -0.332998
C	 -4.803058	 5.128178	 -2.697185
H	 -6.710932	 5.794284	 -3.506951
H	 -5.912386	 6.954966	 -2.461296
C	 -4.977833	 3.649437	 -3.036249
H	 -4.184163	 5.600381	 -3.452389
H	 -4.262071	 5.226479	 -1.759175
C	 -5.641798	 2.853761	 -1.915610
H	 -4.004884	 3.218985	 -3.258036
H	 -5.565299	 3.547095	 -3.945004
C	 -6.900381	 3.527547	 -1.372262
H	 -5.880690	 1.860750	 -2.283311
H	 -4.931197	 2.716432	 -1.103523
C	 -7.827821	 4.111512	 -2.439380
H	 -6.614724	 4.314215	 -0.677756
H	 -7.459838	 2.800038	 -0.790848
C	 -7.244121	 5.287623	 -3.218572
H	 -8.743922	 4.435874	 -1.955707
H	 -8.114795	 3.326049	 -3.133643
H	 -6.941812	 6.086551	 -2.549005
H	 -6.377675	 4.999038	 -3.801388
H	 -7.976863	 5.694192	 -3.906144

8 11 14 18 F
