%nprocshared=4
%mem=2GB
#HF/6-31G* nosymm scf=tight opt=ModRedundant

Mol

0 1
O	 -2.439739	 -0.935931	 -0.423848
C	 -1.921153	 0.064240	 -0.045697
C	 -2.624470	 1.379923	 0.150949
O	 -0.632575	 0.154573	 0.251549
H	 -2.168117	 2.136577	 -0.476876
H	 -3.669540	 1.273223	 -0.098610
H	 -2.519365	 1.700893	 1.180846
C	 0.160891	 -1.019931	 0.106212
C	 1.589627	 -0.672828	 0.480843
H	 0.089836	 -1.367806	 -0.916050
H	 -0.238459	 -1.792301	 0.749618
C	 1.968917	 0.782692	 0.201557
H	 2.244885	 -1.335174	 -0.081179
H	 1.742011	 -0.900431	 1.532620
C	 3.420855	 1.090209	 0.565302
H	 1.806423	 0.999452	 -0.852346
H	 1.307779	 1.438972	 0.757931
H	 3.664716	 2.127546	 0.359156
H	 4.109041	 0.469713	 -0.001850
H	 3.607052	 0.910392	 1.620326

12 9 8 10 F
