%nprocshared=1
%mem=2GB
#HF/6-31G* nosymm scf=tight opt=ModRedundant

Mol

0 1
O	 0.712180	 0.656200	 0.979333
C	 1.122059	 0.121804	 -0.000188
C	 0.540344	 0.261986	 -1.385775
O	 2.172624	 -0.688929	 0.000216
C	 -0.673064	 1.184842	 -1.443369
H	 1.334980	 0.615384	 -2.037249
H	 0.292798	 -0.736236	 -1.736530
C	 -1.242592	 1.308839	 -2.857452
H	 -0.395074	 2.166019	 -1.071187
H	 -1.438617	 0.812695	 -0.769619
C	 -2.459452	 2.230697	 -2.924032
H	 -0.471268	 1.681323	 -3.528564
H	 -1.517064	 0.322665	 -3.226501
H	 -2.208672	 3.234477	 -2.593593
H	 -2.843371	 2.301409	 -3.936891
H	 -3.262144	 1.865784	 -2.289867
C	 3.452279	 -0.082609	 0.000533
H	 3.583069	 0.529321	 -0.880332
H	 4.163299	 -0.894027	 0.001117
H	 3.582335	 0.529955	 0.881077

1 2 4 17 F
