%nprocshared=4
%mem=2GB
#HF/cc-pVTZ nosymm scf=tight opt=ModRedundant

Mol

0 1
H	 -1.835082	 1.385983	 0.000069
C	 -1.300516	 0.441153	 -0.000028
O	 -0.006604	 0.654344	 -0.000106
O	 -1.828920	 -0.612308	 0.000113
C	 0.576849	 1.187572	 -1.185464
C	 2.059186	 1.341165	 -0.940943
H	 0.108866	 2.135704	 -1.409060
H	 0.375436	 0.514900	 -2.006992
H	 2.245750	 2.014000	 -0.113624
H	 2.534399	 1.745988	 -1.826462
H	 2.513660	 0.385047	 -0.714533

5 3 2 4 F
