%nprocshared=1
%mem=2GB
#HF/6-31G* nosymm scf=tight 

Mol

0 1
H	 -2.698709	 -0.000305	 0.034435
C	 -1.693833	 0.000034	 0.434417
O	 -0.828952	 -0.000968	 -0.659236
H	 -1.574200	 0.882896	 1.055746
H	 -1.574147	 -0.881698	 1.057355
C	 0.429480	 0.617584	 -0.524161
C	 0.319230	 2.120921	 -0.277708
C	 1.315219	 -0.076585	 0.508580
H	 0.880651	 0.473377	 -1.498677
H	 -0.355648	 2.571606	 -0.997410
H	 1.293468	 2.587130	 -0.386082
H	 -0.041815	 2.348405	 0.720321
H	 1.329134	 -1.146929	 0.333577
H	 2.332854	 0.293914	 0.433643
H	 0.977894	 0.100510	 1.524794

9 6 3 2 F
