%nprocshared=4
%mem=2GB
#HF/cc-pVTZ nosymm scf=tight opt=ModRedundant

Mol

0 1
H	 -3.268214	 -0.875720	 0.463107
C	 -2.806015	 0.000007	 0.024886
N	 -1.391133	 0.000016	 0.301321
H	 -3.029448	 0.000055	 -1.045738
H	 -3.268126	 0.875758	 0.463150
C	 -0.850907	 -1.338119	 0.406800
C	 -1.059104	 0.782966	 1.471910
H	 -1.309375	 -1.889301	 1.233151
H	 -1.069499	 -1.877551	 -0.507156
C	 0.651356	 -1.295301	 0.615093
H	 -1.429679	 1.792007	 1.335531
H	 -1.531761	 0.376374	 2.370869
C	 0.443159	 0.825784	 1.680203
H	 1.021931	 -2.304343	 0.751472
H	 1.124012	 -0.888710	 -0.283866
N	 0.983384	 -0.512352	 1.785682
H	 0.661750	 1.365216	 2.594159
H	 0.901627	 1.376965	 0.853852
C	 2.398266	 -0.512343	 2.062117
H	 2.748955	 -1.528218	 2.194703
H	 2.595857	 0.030994	 2.977707
H	 2.987015	 -0.053184	 1.262926

6 3 2 4 F
