%nprocshared=1
%mem=2GB
#HF/6-31G* nosymm scf=tight 

Mol

0 1
O	 -2.549567	 -1.605221	 0.943368
C	 -1.865696	 -2.293434	 0.248300
C	 -0.744896	 -1.691852	 -0.581285
C	 -2.055945	 -3.792364	 0.182050
C	 0.492618	 -1.415413	 0.287784
H	 -1.109045	 -0.759668	 -0.999297
H	 -0.481526	 -2.351250	 -1.403391
C	 1.631333	 -0.777471	 -0.511575
H	 0.193504	 -0.771196	 1.106868
H	 0.843891	 -2.345676	 0.731593
C	 2.915987	 -0.544314	 0.291766
H	 1.290604	 0.169226	 -0.926778
H	 1.864706	 -1.416536	 -1.360681
C	 3.373361	 0.914346	 0.347591
H	 3.708709	 -1.142521	 -0.150311
H	 2.780642	 -0.921148	 1.303579
H	 3.506512	 1.320010	 -0.651625
H	 4.322697	 0.999599	 0.867103
H	 2.660624	 1.545032	 0.868198
H	 -2.393171	 -4.074183	 -0.811993
H	 -2.789506	 -4.105111	 0.912024
H	 -1.116153	 -4.307372	 0.359146

6 3 2 1 F
6 3 5 8 F
3 5 8 12 F
