%nprocshared=1
%mem=2GB
#HF/6-31G* nosymm scf=tight opt=ModRedundant

Mol

0 1
O	 1.776178	 0.059333	 -0.793932
C	 2.701189	 0.057885	 -0.047330
C	 3.295834	 1.274490	 0.619796
O	 3.347903	 -1.046386	 0.304773
C	 2.576073	 2.570894	 0.254564
H	 3.283145	 1.089401	 1.688801
H	 4.344963	 1.316872	 0.338320
C	 3.231308	 3.826544	 0.839803
H	 1.541626	 2.510470	 0.579200
H	 2.545914	 2.656888	 -0.826231
C	 3.177592	 3.930559	 2.366697
H	 2.733902	 4.695249	 0.414761
H	 4.267865	 3.881664	 0.510378
C	 3.745147	 5.250179	 2.893465
H	 2.144928	 3.826371	 2.696195
H	 3.726757	 3.107258	 2.817880
C	 3.701409	 5.363025	 4.418419
H	 3.191740	 6.079702	 2.456581
H	 4.774374	 5.360007	 2.555340
C	 4.266479	 6.685298	 4.936097
H	 2.673760	 5.252494	 4.758070
H	 4.257712	 4.537147	 4.856863
H	 4.221821	 6.735284	 6.019662
H	 3.708859	 7.530644	 4.542848
H	 5.304813	 6.809967	 4.641830
C	 4.728119	 -1.109107	 -0.004993
H	 4.882018	 -1.033965	 -1.071845
H	 5.068212	 -2.067527	 0.355250
H	 5.265056	 -0.311663	 0.488280

1 2 4 26 F
