%nprocshared=4
%mem=2GB
#HF/cc-pVTZ nosymm scf=tight opt=ModRedundant

Mol

0 1
H	 3.995267	 -0.290780	 2.741821
C	 3.296312	 -0.775689	 2.070677
C	 2.007636	 0.029461	 1.945377
H	 3.785153	 -0.884474	 1.108264
H	 3.104325	 -1.770998	 2.457353
C	 0.995610	 -0.616965	 1.011083
H	 2.225580	 1.028097	 1.583450
H	 1.560375	 0.148104	 2.929480
N	 -0.205257	 0.181941	 0.895309
H	 1.432162	 -0.713493	 0.021500
H	 0.783291	 -1.633814	 1.354624
C	 -1.215959	 -0.382435	 0.027143
H	 -0.591581	 0.343004	 1.802023
C	 -2.451944	 0.502410	 -0.038737
H	 -0.790181	 -0.477818	 -0.967237
H	 -1.508295	 -1.390798	 0.335075
C	 -3.752217	 -0.292550	 0.005776
H	 -2.407325	 1.093801	 -0.946480
H	 -2.431979	 1.206234	 0.790023
H	 -3.817783	 -0.982946	 -0.828547
H	 -4.612613	 0.364348	 -0.042306
H	 -3.830160	 -0.871666	 0.919868

15 12 14 18 F
