%nprocshared=4
%mem=2GB
#HF/cc-pVTZ nosymm scf=tight opt=ModRedundant

Mol

0 1
O	 2.868453	 1.353349	 -0.000734
C	 2.841259	 0.166180	 -0.000295
C	 1.542794	 -0.614730	 -0.000853
C	 4.113372	 -0.651103	 0.000743
C	 0.288398	 0.247429	 0.000314
H	 1.557171	 -1.273139	 -0.866508
H	 1.557484	 -1.274998	 0.863344
C	 -0.138577	 0.660000	 1.406226
H	 -0.515598	 -0.294102	 -0.484917
H	 0.462630	 1.129316	 -0.605533
C	 -1.395622	 1.524833	 1.421400
H	 -0.309197	 -0.229418	 2.008804
H	 0.673311	 1.200833	 1.887474
C	 -1.829349	 1.941275	 2.823967
H	 -2.207815	 0.984971	 0.940771
H	 -1.225790	 2.414532	 0.819969
C	 -3.086127	 2.805133	 2.830972
H	 -2.000480	 1.052568	 3.425509
H	 -1.018574	 2.482086	 3.304681
H	 -3.924970	 2.278966	 2.387653
H	 -3.366615	 3.082952	 3.840508
H	 -2.935732	 3.719146	 2.266166
H	 4.145311	 -1.294584	 -0.871587
H	 4.970080	 0.004978	 -0.000091
H	 4.145223	 -1.291980	 0.874988

9 5 3 6 F
