%nprocshared=1
%mem=2GB
#HF/6-31G* nosymm scf=tight 

Mol

0 1
O	 -2.821601	 1.309235	 -0.001213
C	 -2.668563	 0.129746	 -0.000350
C	 -3.801572	 -0.864014	 -0.000442
O	 -1.481751	 -0.454642	 0.000584
H	 -4.417280	 -0.689587	 -0.874708
H	 -3.443784	 -1.883046	 -0.000565
H	 -4.417179	 -0.689832	 0.873954
C	 -0.334255	 0.388708	 0.000906
C	 0.891947	 -0.504646	 0.000751
H	 -0.365390	 1.025305	 -0.873475
H	 -0.365484	 1.024911	 0.875569
C	 2.191998	 0.301789	 0.000897
H	 0.855148	 -1.151283	 -0.871571
H	 0.855132	 -1.151660	 0.872805
C	 2.528751	 0.889162	 1.372727
H	 3.013436	 -0.332245	 -0.328234
H	 2.119450	 1.108998	 -0.725898
C	 3.827947	 1.693498	 1.373125
H	 2.601975	 0.083836	 2.100163
H	 1.709947	 1.524869	 1.702131
H	 4.671943	 1.075565	 1.080135
H	 4.039635	 2.096496	 2.358527
H	 3.773098	 2.527603	 0.679389

13 9 8 10 F
2 4 8 10 F
19 15 12 16 F
1 2 4 8 F
