%nprocshared=4
%mem=2GB
#HF/cc-pVTZ nosymm scf=tight opt=ModRedundant

Mol

0 1
H	 -3.110137	 -0.339884	 0.045450
C	 -2.909181	 0.546953	 -0.551225
O	 -1.562008	 0.650230	 -0.870598
H	 -3.463738	 0.476932	 -1.475591
H	 -3.257567	 1.418475	 0.000101
C	 -0.718530	 0.758693	 0.228682
C	 0.718529	 0.758687	 -0.228709
H	 -0.917530	 1.685274	 0.767028
H	 -0.874713	 -0.069201	 0.916890
O	 1.401606	 -0.295166	 0.366636
H	 0.748705	 0.673477	 -1.312803
H	 1.176496	 1.708671	 0.046552
C	 2.714315	 -0.441627	 -0.061017
H	 2.765292	 -0.641548	 -1.128869
H	 3.305661	 0.447341	 0.150952
H	 3.143725	 -1.278506	 0.470147

3 6 7 11 F
