%nprocshared=1
%mem=2GB
#HF/6-31G* nosymm scf=tight 

Mol

0 1
H	 2.591676	 2.013956	 0.335017
O	 3.341076	 1.666752	 -0.126416
C	 3.569581	 0.339145	 0.272707
C	 2.539767	 -0.640285	 -0.279495
H	 4.553106	 0.084646	 -0.100901
H	 3.608576	 0.269204	 1.359154
C	 1.115811	 -0.397273	 0.226630
H	 2.556196	 -0.582511	 -1.364741
H	 2.852081	 -1.648031	 -0.010655
C	 0.966308	 0.943869	 0.950373
H	 0.832218	 -1.204489	 0.896215
H	 0.422453	 -0.428718	 -0.613968
C	 -0.460306	 1.275719	 1.403131
H	 1.630681	 0.961461	 1.812432
H	 1.309838	 1.735109	 0.287328
C	 -1.020047	 0.358467	 2.493918
H	 -0.472543	 2.299528	 1.771210
H	 -1.124581	 1.257382	 0.540439
C	 -2.402214	 0.792568	 2.986469
H	 -0.329500	 0.339026	 3.335868
H	 -1.082869	 -0.663430	 2.127747
C	 -2.966033	 -0.125047	 4.070791
H	 -2.345065	 1.809505	 3.368648
H	 -3.091217	 0.821960	 2.144866
H	 -2.315226	 -0.150419	 4.940292
H	 -3.944778	 0.209842	 4.400246
H	 -3.070331	 -1.143699	 3.707702

14 10 7 4 F
14 10 13 16 F
8 4 3 2 F
10 13 16 20 F
20 16 19 22 F
4 3 2 1 F
