%nprocshared=4
%mem=2GB
#HF/cc-pVTZ nosymm scf=tight 
prop=(read,field)

Mol

0 1
H	 -0.000339	 -0.223886	 -3.352295
C	 -0.027143	 0.371084	 -2.446756
C	 0.024496	 -0.518525	 -1.216015
H	 -0.932583	 0.964995	 -2.449855
H	 0.819711	 1.049881	 -2.473332
N	 -0.042513	 0.263393	 0.000000
H	 -0.822208	 -1.197089	 -1.225584
H	 0.921117	 -1.142831	 -1.255206
C	 0.024496	 -0.518525	 1.216015
H	 0.682571	 0.950428	 0.000000
C	 -0.027143	 0.371084	 2.446756
H	 -0.822208	 -1.197089	 1.225584
H	 0.921117	 -1.142831	 1.255206
H	 -0.932583	 0.964995	 2.449855
H	 -0.000339	 -0.223886	 3.352295
H	 0.819711	 1.049881	 2.473332

@grid.dat /N
