%nprocshared=4
%mem=2GB
#HF/cc-pVTZ nosymm scf=tight opt=ModRedundant

Mol

0 1
O	 -0.694481	 1.313155	 -0.204815
C	 -0.862519	 0.151932	 -0.046791
C	 -2.171428	 -0.477048	 0.339095
O	 0.085519	 -0.757083	 -0.192238
H	 -2.467997	 -1.191667	 -0.417688
H	 -2.923379	 0.287970	 0.444097
H	 -2.053854	 -1.015120	 1.270901
C	 1.244471	 -0.675109	 0.629097
C	 1.030572	 -1.349448	 1.968281
H	 1.518563	 0.360710	 0.754669
H	 2.015894	 -1.177096	 0.064591
H	 1.952553	 -1.325686	 2.538226
H	 0.265250	 -0.841508	 2.538950
H	 0.740217	 -2.384398	 1.833505

8 4 2 1 F
