%nprocshared=4
%mem=2GB
#HF/6-31G* nosymm scf=tight opt=ModRedundant

Mol

0 1
O	 -2.821601	 1.309235	 -0.001213
C	 -2.668563	 0.129746	 -0.000350
C	 -3.801572	 -0.864014	 -0.000442
O	 -1.481751	 -0.454642	 0.000584
H	 -4.417280	 -0.689587	 -0.874708
H	 -3.443784	 -1.883046	 -0.000565
H	 -4.417179	 -0.689832	 0.873954
C	 -0.334255	 0.388708	 0.000906
C	 0.891947	 -0.504646	 0.000751
H	 -0.365390	 1.025305	 -0.873475
H	 -0.365484	 1.024911	 0.875569
C	 2.191998	 0.301789	 0.000897
H	 0.855148	 -1.151283	 -0.871571
H	 0.855132	 -1.151660	 0.872805
C	 3.033226	 0.075919	 1.258532
H	 2.782102	 0.040788	 -0.875882
H	 1.962436	 1.362004	 -0.090348
C	 4.332344	 0.880382	 1.258014
H	 3.263834	 -0.983010	 1.351067
H	 2.445854	 0.338437	 2.135543
H	 4.957472	 0.615387	 0.410072
H	 4.906385	 0.699248	 2.161288
H	 4.133350	 1.946748	 1.200789

16 12 9 13 F
