%nprocshared=1
%mem=2GB
#HF/6-31G* nosymm scf=tight 

Mol

0 1
H	 3.264554	 1.068809	 2.238421
N	 2.432771	 0.510570	 2.245675
C	 1.522815	 0.926693	 1.188155
H	 2.007446	 0.636685	 3.144576
C	 0.302525	 0.013290	 1.139754
H	 2.058957	 0.858913	 0.246446
H	 1.195050	 1.964504	 1.287744
C	 -0.679275	 0.379305	 0.025956
H	 0.644896	 -1.010224	 1.017129
H	 -0.210617	 0.053852	 2.100158
C	 -1.903357	 -0.536963	 -0.023547
H	 -0.166275	 0.341841	 -0.933875
H	 -1.008985	 1.409156	 0.154589
C	 -3.225172	 0.228290	 0.028445
H	 -1.867824	 -1.134999	 -0.931459
H	 -1.860449	 -1.239604	 0.805977
H	 -3.313397	 0.915643	 -0.808262
H	 -4.073500	 -0.448134	 -0.008893
H	 -3.306061	 0.809945	 0.942516

6 3 5 9 F
12 8 5 9 F
1 2 3 6 F
