%nprocshared=4
%mem=2GB
#HF/cc-pVTZ nosymm scf=tight opt=ModRedundant

Mol

0 1
H	 2.358432	 0.559593	 -0.696229
C	 1.937402	 -0.327979	 -0.237852
N	 0.526300	 -0.128137	 0.000000
H	 2.449556	 -0.486136	 0.702746
H	 2.156326	 -1.174028	 -0.892714
C	 -0.247113	 0.037112	 -1.209233
H	 0.161334	 -0.885002	 0.536297
H	 -0.996493	 -0.743733	 -1.271440
H	 0.397975	 -0.057351	 -2.073512
H	 -0.763794	 0.997171	 -1.271673

2 3 6 8 F
