%nprocshared=4
%mem=2GB
#HF/cc-pVTZ nosymm scf=tight opt=ModRedundant

Mol

0 1
H	 5.696706	 -8.869277	 -4.226324
O	 6.082427	 -8.246676	 -3.638601
C	 6.765164	 -7.255722	 -4.360511
C	 5.841199	 -6.281770	 -5.076327
H	 7.362851	 -6.720650	 -3.634944
H	 7.452354	 -7.709963	 -5.071767
C	 4.706317	 -5.741354	 -4.209239
H	 6.436339	 -5.456604	 -5.455890
H	 5.422081	 -6.792334	 -5.940077
C	 3.683980	 -6.814430	 -3.837523
H	 4.207503	 -4.933452	 -4.734103
H	 5.121473	 -5.313534	 -3.298249
C	 2.563495	 -6.345147	 -2.907715
H	 3.248644	 -7.222720	 -4.746373
H	 4.206490	 -7.637105	 -3.357255
C	 3.009841	 -5.968591	 -1.496077
H	 2.084348	 -5.481368	 -3.360297
H	 1.799283	 -7.116978	 -2.849303
C	 3.483501	 -7.168232	 -0.679428
H	 2.184700	 -5.486099	 -0.976642
H	 3.810988	 -5.237000	 -1.540143
C	 4.787405	 -7.768073	 -1.195101
H	 3.610487	 -6.868801	 0.357294
H	 2.710250	 -7.931867	 -0.682378
H	 5.589371	 -7.037552	 -1.174452
H	 5.096164	 -8.614511	 -0.592342
H	 4.682460	 -8.112344	 -2.218729

20 16 19 22 F
