%nprocshared=4
%mem=2GB
#HF/cc-pVTZ nosymm scf=tight 
prop=(read,field)

Mol

0 1
H	 -3.145170	 -1.202537	 -0.018771
O	 -2.321648	 -0.865011	 -0.318646
C	 -2.021989	 0.336926	 0.342638
C	 -0.669789	 0.837216	 -0.127272
H	 -2.781037	 1.084676	 0.127139
H	 -2.006566	 0.184068	 1.420033
C	 0.490689	 -0.082613	 0.241224
H	 -0.708885	 0.967122	 -1.204607
H	 -0.507738	 1.822202	 0.303050
C	 1.839624	 0.429495	 -0.255492
H	 0.305460	 -1.070281	 -0.165296
H	 0.527221	 -0.196013	 1.322856
C	 3.000968	 -0.485263	 0.119052
H	 1.804197	 0.541003	 -1.335776
H	 2.020261	 1.423044	 0.146901
H	 2.866716	 -1.477367	 -0.298826
H	 3.943367	 -0.095819	 -0.249081
H	 3.084888	 -0.590529	 1.195770

@grid.dat /N
