%nprocshared=4
%mem=2GB
#HF/cc-pVTZ nosymm scf=tight opt=ModRedundant

Mol

0 1
H	 0.372786	 -3.063731	 -4.270100
O	 1.311417	 -3.054546	 -4.296892
C	 1.799065	 -1.830421	 -3.814203
C	 1.658666	 -1.673376	 -2.307448
H	 2.845903	 -1.802073	 -4.084955
H	 1.312159	 -1.000761	 -4.323160
C	 0.214485	 -1.611354	 -1.815164
H	 2.174607	 -2.497936	 -1.824682
H	 2.177171	 -0.762872	 -2.016704
C	 -0.121013	 -0.285958	 -1.132813
H	 0.035618	 -2.428714	 -1.124561
H	 -0.459675	 -1.759682	 -2.657062
C	 -1.576503	 -0.139764	 -0.685120
H	 0.533498	 -0.150323	 -0.275232
H	 0.109766	 0.523732	 -1.819554
C	 -2.597646	 -0.067717	 -1.819059
H	 -1.824505	 -0.986005	 -0.050376
H	 -1.671802	 0.744374	 -0.058723
C	 -4.040256	 -0.022707	 -1.321804
H	 -2.470854	 -0.930005	 -2.470099
H	 -2.412032	 0.807705	 -2.434027
C	 -5.062228	 0.053048	 -2.451285
H	 -4.238392	 -0.902517	 -0.715789
H	 -4.166425	 0.833466	 -0.664453
H	 -4.983215	 -0.806378	 -3.108842
H	 -6.074450	 0.080796	 -2.064318
H	 -4.914631	 0.943047	 -3.054168

10 7 4 8 F
