%nprocshared=4
%mem=2GB
#HF/cc-pVTZ nosymm scf=tight opt=ModRedundant

Mol

0 1
H	 -4.340537	 -0.784487	 0.000000
O	 -3.958786	 0.074640	 0.000000
C	 -2.613554	 0.009900	 0.000000
C	 -1.953249	 0.398538	 1.153747
C	 -1.889080	 -0.423502	 -1.093702
H	 -2.525322	 0.733046	 1.996184
C	 -0.577911	 0.352317	 1.208546
H	 -2.394253	 -0.726632	 -1.992301
C	 -0.507991	 -0.469306	 -1.037001
H	 -0.068952	 0.653358	 2.101912
C	 0.142035	 -0.081951	 0.111866
H	 0.049649	 -0.806056	 -1.887495
Br	 2.037702	 -0.143803	 0.192489

4 3 2 1 F
