%nprocshared=4
%mem=2GB
#HF/cc-pVTZ nosymm scf=tight opt=ModRedundant

Mol

0 1
H	 1.651322	 -0.822465	 0.000000
O	 0.729993	 -1.034364	 0.000000
C	 0.037305	 0.100061	 0.000000
C	 0.506919	 1.045439	 1.064801
O	 -0.840091	 0.305885	 -0.764596
H	 0.411232	 0.573938	 2.034336
H	 -0.079168	 1.948764	 1.029700
H	 1.554065	 1.271760	 0.910750

4 3 2 1 F
