%nprocshared=4
%mem=2GB
#HF/cc-pVTZ nosymm scf=tight opt=ModRedundant

Mol

0 1
O	 -0.661489	 -1.654523	 1.661367
C	 -1.523129	 -1.436538	 0.878753
C	 -2.789244	 -2.244153	 0.783920
O	 -1.481217	 -0.452708	 0.001092
H	 -3.292492	 -2.208695	 1.740771
H	 -3.443818	 -1.877968	 0.009271
H	 -2.525724	 -3.274947	 0.588738
C	 -0.332055	 0.384012	 -0.000250
C	 0.892252	 -0.506059	 -0.000295
H	 -0.360822	 1.020205	 -0.874146
H	 -0.359817	 1.021310	 0.872861
C	 2.188199	 0.299473	 -0.001416
H	 0.857046	 -1.152781	 -0.871031
H	 0.857910	 -1.151798	 0.871202
C	 2.909702	 0.272842	 1.343147
H	 2.853140	 -0.084543	 -0.771067
H	 1.973882	 1.330616	 -0.271206
C	 4.204177	 1.078659	 1.342797
H	 3.125974	 -0.756946	 1.612998
H	 2.246257	 0.656516	 2.113032
H	 4.902706	 0.696907	 0.605797
H	 4.690662	 1.039344	 2.310419
H	 4.016201	 2.121268	 1.109379

16 12 9 13 F
