%nprocshared=4
%mem=2GB
#HF/cc-pVTZ nosymm scf=tight opt=ModRedundant

Mol

0 1
O	 3.219313	 0.959291	 -0.614106
C	 2.698710	 0.058177	 -0.050237
C	 1.246364	 -0.005813	 0.348416
O	 3.344101	 -1.038700	 0.312317
C	 0.453207	 1.232821	 -0.049003
H	 0.839270	 -0.907818	 -0.092281
H	 1.216683	 -0.160521	 1.422434
C	 -0.998367	 1.217982	 0.432195
H	 0.481498	 1.345443	 -1.127236
H	 0.951413	 2.105557	 0.354893
C	 -1.882951	 0.151251	 -0.211235
H	 -1.429490	 2.193659	 0.228843
H	 -1.019755	 1.099323	 1.513279
C	 -3.308955	 0.150899	 0.333098
H	 -1.909814	 0.311917	 -1.286566
H	 -1.450855	 -0.833726	 -0.060736
C	 -3.404657	 -0.304901	 1.786323
H	 -3.928988	 -0.493606	 -0.285377
H	 -3.727689	 1.150678	 0.243824
C	 -4.832418	 -0.304289	 2.322302
H	 -2.986812	 -1.303846	 1.877069
H	 -2.787677	 0.339999	 2.406240
H	 -4.864828	 -0.632252	 3.354956
H	 -5.467460	 -0.967793	 1.744726
H	 -5.267021	 0.688830	 2.277111
C	 4.720529	 -1.114346	 0.001449
H	 4.874321	 -1.055557	 -1.065852
H	 5.057824	 -2.067950	 0.373977
H	 5.264321	 -0.313596	 0.480350

15 11 8 5 F
