%nprocshared=4
%mem=2GB
#HF/cc-pVTZ nosymm scf=tight opt=ModRedundant

Mol

0 1
H	 0.261163	 -2.782952	 5.798150
C	 0.263063	 -1.700840	 5.735723
C	 0.212025	 -1.232237	 4.285506
H	 -0.593354	 -1.335937	 6.292150
H	 1.158259	 -1.342323	 6.233608
C	 0.224192	 0.289459	 4.157983
H	 -0.679994	 -1.627425	 3.813205
H	 1.061584	 -1.643616	 3.745282
C	 0.180176	 0.787811	 2.716943
H	 -0.615716	 0.705271	 4.700647
H	 1.125212	 0.676631	 4.624935
C	 -1.158526	 0.603377	 2.022431
H	 0.390394	 1.854017	 2.689042
H	 0.956923	 0.319442	 2.119606
C	 -1.180025	 0.697761	 0.509157
O	 -2.158874	 0.412870	 2.635853
C	 -2.285431	 -0.137488	 -0.145671
H	 -0.209921	 0.373472	 0.157623
H	 -1.304974	 1.741273	 0.232271
C	 -3.646545	 0.082747	 0.508954
H	 -2.348635	 0.118247	 -1.199806
H	 -2.034895	 -1.192387	 -0.096473
C	 -4.757412	 -0.737227	 -0.138149
H	 -3.900211	 1.137405	 0.459735
H	 -3.580878	 -0.166775	 1.564416
H	 -4.867876	 -0.486707	 -1.187777
H	 -4.549650	 -1.800049	 -0.072540
H	 -5.709585	 -0.556397	 0.346597

16 12 15 17 F
