%nprocshared=4
%mem=2GB
#HF/cc-pVTZ nosymm scf=tight opt=ModRedundant

Mol

0 1
O	 -2.071633	 -1.227563	 -0.223463
C	 -1.652164	 -0.152425	 0.058082
C	 -0.327811	 0.006324	 0.778296
C	 -2.402515	 1.108629	 -0.298924
C	 0.795979	 0.357888	 -0.204009
H	 -0.404270	 0.775156	 1.539989
H	 -0.104614	 -0.934618	 1.264762
C	 1.130140	 -0.789978	 -1.152149
H	 1.690596	 0.639053	 0.345810
H	 0.496872	 1.229393	 -0.776180
C	 2.238642	 -0.440592	 -2.139223
H	 1.423056	 -1.661743	 -0.573573
H	 0.235269	 -1.072412	 -1.698937
H	 3.158256	 -0.187164	 -1.622389
H	 1.960996	 0.408643	 -2.754108
H	 2.449848	 -1.272917	 -2.800304
H	 -3.240910	 0.874416	 -0.936711
H	 -1.747554	 1.818823	 -0.790984
H	 -2.760419	 1.579708	 0.610998

5 3 2 4 F
