%nprocshared=1
%mem=2GB
#HF/6-31G* nosymm scf=tight opt=ModRedundant

Mol

0 1
O	 2.862325	 1.357334	 0.000267
C	 2.843464	 0.164689	 -0.000222
C	 1.546494	 -0.624492	 -0.000609
C	 4.124123	 -0.644674	 -0.000428
C	 0.291004	 0.242674	 0.000989
H	 1.557904	 -1.283758	 -0.867573
H	 1.558622	 -1.285963	 0.864672
C	 -0.411561	 0.254619	 1.359673
H	 -0.390321	 -0.116408	 -0.763855
H	 0.557504	 1.255035	 -0.285807
C	 -1.672769	 1.120017	 1.372752
H	 -0.672895	 -0.764019	 1.642742
H	 0.277798	 0.614187	 2.122275
C	 -2.381304	 1.136964	 2.728372
H	 -2.362914	 0.761037	 0.611271
H	 -1.412587	 2.138736	 1.090771
C	 -3.640299	 2.003329	 2.733443
H	 -2.642944	 0.119305	 3.010752
H	 -1.692888	 1.497062	 3.490127
H	 -4.363589	 1.647925	 2.004958
H	 -4.120315	 1.994771	 3.707205
H	 -3.406666	 3.035678	 2.488874
H	 4.165367	 -1.288615	 -0.874074
H	 4.976217	 0.020734	 -0.001915
H	 4.166763	 -1.286207	 0.874930

9 5 3 6 F
