%nprocshared=4
%mem=2GB
#HF/cc-pVTZ nosymm scf=tight opt=ModRedundant

Mol

0 1
O	 2.908599	 0.395611	 -0.860748
C	 2.666278	 -0.766446	 -0.828882
C	 1.265259	 -1.296193	 -0.600088
C	 3.751006	 -1.802964	 -1.016557
C	 0.206237	 -0.218823	 -0.414146
H	 1.017115	 -1.939490	 -1.441314
H	 1.301385	 -1.954524	 0.264956
C	 -1.187032	 -0.798755	 -0.187003
H	 0.199164	 0.426738	 -1.284959
H	 0.483797	 0.411775	 0.422777
C	 -2.258482	 0.271340	 0.000669
H	 -1.457717	 -1.431943	 -1.029071
H	 -1.171888	 -1.446627	 0.686664
C	 -2.305585	 1.289336	 -1.135201
H	 -2.085647	 0.790594	 0.940145
H	 -3.230400	 -0.207080	 0.093505
C	 -3.572900	 2.137654	 -1.127623
H	 -1.437227	 1.939525	 -1.070796
H	 -2.226298	 0.769809	 -2.086371
H	 -3.663669	 2.697063	 -0.202494
H	 -3.574663	 2.849112	 -1.945453
H	 -4.458537	 1.518747	 -1.225834
H	 3.521506	 -2.434753	 -1.867568
H	 4.700810	 -1.314976	 -1.171901
H	 3.808948	 -2.445453	 -0.144839

15 11 14 18 F
