%nprocshared=4
%mem=2GB
#HF/cc-pVTZ nosymm scf=tight opt=ModRedundant

Mol

0 1
H	 -2.171709	 0.882708	 0.500286
C	 -2.016894	 0.001719	 -0.114152
O	 -0.775228	 0.000056	 -0.739966
H	 -2.760846	 0.003757	 -0.898169
H	 -2.174774	 -0.879864	 0.498643
C	 -0.406308	 1.077637	 -1.577819
C	 0.992398	 0.707228	 -2.058759
C	 -1.353220	 1.195796	 -2.773660
C	 -0.356713	 2.392257	 -0.796851
H	 0.966758	 -0.235438	 -2.590573
H	 1.661086	 0.599305	 -1.214181
H	 1.389653	 1.467750	 -2.720397
H	 -1.434828	 0.243714	 -3.284099
H	 -0.975960	 1.928435	 -3.477084
H	 -2.345853	 1.511526	 -2.477762
H	 0.263290	 2.282756	 0.084793
H	 0.064125	 3.176968	 -1.414104
H	 -1.341037	 2.718083	 -0.484585

6 3 2 5 F
