%nprocshared=1
%mem=2GB
#HF/6-31G* nosymm scf=tight 
prop=(read,field)

Mol

0 1
H	 -4.236726	 0.538112	 0.039744
O	 -3.517341	 -0.026183	 -0.205128
C	 -2.307118	 0.532362	 0.237565
C	 -1.178094	 -0.397183	 -0.171093
H	 -2.156540	 1.517583	 -0.201723
H	 -2.315247	 0.655692	 1.319722
C	 0.197871	 0.111040	 0.262829
H	 -1.209074	 -0.518751	 -1.250440
H	 -1.368973	 -1.376546	 0.258896
C	 1.331572	 -0.827771	 -0.158781
H	 0.361711	 1.100847	 -0.156230
H	 0.217034	 0.229080	 1.345519
C	 2.723388	 -0.410561	 0.329446
H	 1.342733	 -0.912580	 -1.244133
H	 1.116575	 -1.824335	 0.220767
C	 3.243644	 0.895863	 -0.272988
H	 3.423990	 -1.207116	 0.091238
H	 2.714557	 -0.329846	 1.414606
H	 3.251745	 0.848787	 -1.358694
H	 2.636853	 1.747379	 0.016670
H	 4.259242	 1.094078	 0.055684

@grid.dat /N
