%nprocshared=4
%mem=2GB
#HF/cc-pVTZ nosymm scf=tight opt=ModRedundant

Mol

0 1
O	 0.395927	 1.296676	 -0.000076
C	 0.503051	 0.114301	 -0.000074
C	 -0.701422	 -0.805636	 -0.000109
C	 1.858118	 -0.556123	 0.000212
C	 -1.696220	 -0.524545	 1.114990
H	 -1.176957	 -0.722836	 -0.973991
H	 -0.333752	 -1.826934	 0.056543
H	 -2.081368	 0.483990	 1.046099
H	 -2.529809	 -1.214286	 1.058060
H	 -1.230704	 -0.629896	 2.085777
H	 1.961106	 -1.191101	 -0.872843
H	 2.636688	 0.191085	 -0.000109
H	 1.961070	 -1.190284	 0.873873

6 3 2 1 F
