%nprocshared=4
%mem=2GB
#HF/cc-pVTZ nosymm scf=tight opt=ModRedundant

Mol

0 1
H	 2.342730	 0.877684	 -1.045694
C	 2.360424	 0.000000	 -0.411793
C	 1.173749	 0.000000	 0.526870
H	 3.286567	 0.000000	 0.151574
H	 2.342730	 -0.877684	 -1.045694
O	 -0.000000	 0.000000	 -0.223739
H	 1.203779	 0.876757	 1.172538
H	 1.203779	 -0.876757	 1.172538
C	 -1.173749	 0.000000	 0.526870
C	 -1.840200	 -1.352575	 0.401696
H	 -1.842509	 0.783932	 0.173737
H	 -0.949019	 0.214383	 1.570914
H	 -2.078927	 -1.563568	 -0.633179
H	 -2.757487	 -1.375601	 0.978911
H	 -1.184493	 -2.133719	 0.765475

11 9 6 3 F
