%nprocshared=1
%mem=2GB
#HF/6-31G* nosymm scf=tight opt=ModRedundant

Mol

0 1
O	 3.225979	 0.970355	 -0.599647
C	 2.701189	 0.057885	 -0.047330
C	 1.245376	 -0.013843	 0.345420
O	 3.347903	 -1.046386	 0.304773
C	 0.791771	 1.176876	 1.187172
H	 0.672538	 -0.105663	 -0.571433
H	 1.100870	 -0.948928	 0.880613
C	 -0.654529	 1.067662	 1.681928
H	 0.916138	 2.090093	 0.612989
H	 1.453522	 1.268278	 2.041662
C	 -1.718499	 1.117523	 0.581660
H	 -0.835231	 1.884230	 2.377117
H	 -0.772656	 0.150505	 2.257149
C	 -3.145550	 1.115877	 1.133494
H	 -1.567440	 2.011344	 -0.021735
H	 -1.601422	 0.271198	 -0.091392
C	 -4.217236	 1.160220	 0.042782
H	 -3.275165	 1.968205	 1.798304
H	 -3.293852	 0.227706	 1.745751
C	 -5.639424	 1.162162	 0.602316
H	 -4.069905	 2.046623	 -0.570592
H	 -4.092013	 0.306670	 -0.620206
H	 -6.376043	 1.193925	 -0.194547
H	 -5.807607	 2.023543	 1.242576
H	 -5.829576	 0.270458	 1.193061
C	 4.728119	 -1.109107	 -0.004993
H	 4.882018	 -1.033965	 -1.071845
H	 5.068212	 -2.067527	 0.355250
H	 5.265056	 -0.311663	 0.488280

6 3 2 1 F
