%nprocshared=4
%mem=2GB
#HF/cc-pVTZ nosymm scf=tight opt=ModRedundant

Mol

0 1
O	 1.467448	 0.644700	 1.005830
C	 1.121787	 0.124983	 0.000110
C	 -0.307144	 -0.081445	 -0.432334
O	 1.969101	 -0.353489	 -0.896273
C	 -1.180809	 1.154386	 -0.273105
H	 -0.284703	 -0.416641	 -1.464138
H	 -0.698311	 -0.915804	 0.140636
C	 -0.584260	 2.380167	 -0.958596
H	 -1.324986	 1.357508	 0.782118
H	 -2.166203	 0.950875	 -0.676995
C	 -1.450776	 3.625129	 -0.803320
H	 0.404291	 2.577073	 -0.552105
H	 -0.441952	 2.170570	 -2.015504
H	 -1.583100	 3.880927	 0.242453
H	 -1.003217	 4.478677	 -1.299127
H	 -2.435419	 3.471551	 -1.231656
C	 3.226978	 0.281687	 -1.004047
H	 3.107866	 1.319775	 -1.276836
H	 3.762124	 -0.246898	 -1.776112
H	 3.765395	 0.222432	 -0.069799

1 2 4 17 F
