%nprocshared=4
%mem=2GB
#HF/6-31G* nosymm scf=tight opt=ModRedundant

Mol

0 1
H	 -3.161837	 0.500524	 -0.000234
C	 -2.367097	 -0.232926	 -0.000000
O	 -1.158440	 0.455814	 -0.000122
H	 -2.468853	 -0.861886	 -0.882833
H	 -2.468942	 -0.861421	 0.883154
C	 -0.029776	 -0.365156	 0.000148
C	 0.234979	 -0.834986	 -1.419650
H	 -0.187744	 -1.220286	 0.658706
H	 0.832088	 0.181697	 0.384920
C	 1.459060	 -1.744551	 -1.515552
H	 -0.647359	 -1.354557	 -1.780464
H	 0.365402	 0.037569	 -2.052372
H	 1.338442	 -2.636965	 -0.907711
H	 1.624670	 -2.064260	 -2.538882
H	 2.358435	 -1.235141	 -1.180842

8 6 3 2 F
