%nprocshared=4
%mem=2GB
#HF/cc-pVTZ nosymm scf=tight opt=ModRedundant

Mol

0 1
O	 2.868453	 1.353349	 -0.000734
C	 2.841259	 0.166180	 -0.000295
C	 1.542794	 -0.614730	 -0.000853
C	 4.113372	 -0.651103	 0.000743
C	 0.288398	 0.247429	 0.000314
H	 1.557171	 -1.273139	 -0.866508
H	 1.557484	 -1.274998	 0.863344
C	 -0.993089	 -0.581367	 -0.000217
H	 0.305153	 0.900562	 -0.864701
H	 0.305567	 0.898805	 0.866656
C	 -2.258482	 0.271340	 0.000669
H	 -1.002280	 -1.233920	 -0.870484
H	 -1.002061	 -1.235367	 0.868958
C	 -3.475117	 -0.447995	 0.576077
H	 -2.477525	 0.588571	 -1.015942
H	 -2.077692	 1.180323	 0.569168
C	 -4.735651	 0.410396	 0.573523
H	 -3.657296	 -1.356116	 0.007687
H	 -3.257529	 -0.764332	 1.592691
H	 -4.999784	 0.714547	 -0.433833
H	 -5.579616	 -0.129229	 0.987708
H	 -4.597158	 1.310555	 1.163081
H	 4.145311	 -1.294584	 -0.871587
H	 4.970080	 0.004978	 -0.000091
H	 4.145223	 -1.291980	 0.874988

15 11 8 12 F
