%nprocshared=1
%mem=2GB
#HF/6-31G* nosymm scf=tight opt=ModRedundant

Mol

0 1
O	 3.064095	 0.522976	 -1.230363
C	 2.614672	 -0.180961	 -0.384460
C	 1.169961	 -0.221285	 0.051401
O	 3.347903	 -1.046386	 0.304773
C	 0.282331	 0.750398	 -0.723234
H	 0.835149	 -1.248215	 -0.051110
H	 1.147885	 -0.006834	 1.116868
C	 -1.165157	 0.797499	 -0.222180
H	 0.298482	 0.488709	 -1.776978
H	 0.714351	 1.742919	 -0.654802
C	 -1.962726	 -0.492985	 -0.431096
H	 -1.674170	 1.607905	 -0.738776
H	 -1.174653	 1.060779	 0.834515
C	 -3.429368	 -0.359731	 -0.016123
H	 -1.910633	 -0.779769	 -1.480315
H	 -1.511484	 -1.307484	 0.130992
C	 -4.234886	 -1.644831	 -0.215598
H	 -3.892271	 0.445358	 -0.584267
H	 -3.482005	 -0.062516	 1.030104
C	 -5.699342	 -1.502204	 0.197593
H	 -4.182519	 -1.943802	 -1.260355
H	 -3.776231	 -2.449713	 0.354999
H	 -6.243703	 -2.428957	 0.044603
H	 -6.196019	 -0.727769	 -0.380126
H	 -5.786470	 -1.236979	 1.247516
C	 4.728119	 -1.109107	 -0.004993
H	 4.882018	 -1.033965	 -1.071845
H	 5.068212	 -2.067527	 0.355250
H	 5.265056	 -0.311663	 0.488280

2 4 26 27 F
