%nprocshared=1
%mem=2GB
#HF/6-31G* nosymm scf=tight opt=ModRedundant

Mol

0 1
O	 -2.042549	 -1.228399	 -0.269030
C	 -1.653912	 -0.146171	 0.050137
C	 -0.332303	 0.024011	 0.778412
C	 -2.438579	 1.106236	 -0.272369
C	 0.845713	 -0.001731	 -0.208243
H	 -0.323783	 0.953829	 1.340327
H	 -0.235459	 -0.796807	 1.480410
C	 1.230906	 1.393577	 -0.701978
H	 0.596257	 -0.628131	 -1.062923
H	 1.696535	 -0.466812	 0.280575
C	 2.407887	 1.371818	 -1.676375
H	 0.371883	 1.857179	 -1.182163
H	 1.479537	 2.019202	 0.152039
H	 2.176945	 0.780882	 -2.558142
H	 3.291685	 0.942967	 -1.213310
H	 2.660641	 2.374182	 -2.007145
H	 -3.277823	 0.863061	 -0.908988
H	 -1.806773	 1.843019	 -0.759671
H	 -2.802853	 1.554979	 0.648059

9 5 3 2 F
