%nprocshared=1
%mem=2GB
#HF/6-31G* nosymm scf=tight opt=ModRedundant

Mol

0 1
O	 3.225979	 0.970355	 -0.599647
C	 2.701189	 0.057885	 -0.047330
C	 1.245376	 -0.013843	 0.345420
O	 3.347903	 -1.046386	 0.304773
C	 0.455112	 1.231400	 -0.050772
H	 0.838542	 -0.913825	 -0.103701
H	 1.208210	 -0.175333	 1.419774
C	 -0.998893	 1.219485	 0.433193
H	 0.482531	 1.345121	 -1.130325
H	 0.957290	 2.103070	 0.354729
C	 -1.174248	 1.305787	 1.952045
H	 -1.463381	 0.301163	 0.081537
H	 -1.545265	 2.033959	 -0.040220
C	 -2.634670	 1.179486	 2.390469
H	 -0.587648	 0.519674	 2.425065
H	 -0.776876	 2.248175	 2.322143
C	 -2.822512	 1.269543	 3.905968
H	 -3.036308	 0.232045	 2.035117
H	 -3.223745	 1.958749	 1.909387
C	 -4.283288	 1.138671	 4.335743
H	 -2.233742	 0.492169	 4.388337
H	 -2.425585	 2.217780	 4.262447
H	 -4.383935	 1.206509	 5.414573
H	 -4.699639	 0.184858	 4.024152
H	 -4.892972	 1.923431	 3.896753
C	 4.728119	 -1.109107	 -0.004993
H	 4.882018	 -1.033965	 -1.071845
H	 5.068212	 -2.067527	 0.355250
H	 5.265056	 -0.311663	 0.488280

11 8 5 9 F
