%nprocshared=4
%mem=2GB
#HF/cc-pVTZ nosymm scf=tight opt=ModRedundant

Mol

0 1
H	 2.614283	 2.028610	 0.296620
O	 3.358864	 1.662087	 -0.142800
C	 3.565468	 0.338079	 0.273842
C	 2.533667	 -0.637565	 -0.272227
H	 4.548038	 0.064914	 -0.086598
H	 3.593945	 0.282242	 1.360360
C	 1.775620	 -1.414934	 0.801511
H	 1.830687	 -0.086905	 -0.890087
H	 3.048640	 -1.336943	 -0.926499
C	 0.772625	 -2.407566	 0.215405
H	 1.256517	 -0.717224	 1.450151
H	 2.486662	 -1.953200	 1.425991
C	 0.037002	 -3.267139	 1.245089
H	 0.045581	 -1.867235	 -0.385990
H	 1.299499	 -3.067109	 -0.468610
C	 -0.923057	 -2.504571	 2.156417
H	 -0.524544	 -4.030256	 0.713256
H	 0.764921	 -3.798684	 1.853981
C	 -1.705257	 -3.417309	 3.097419
H	 -1.622217	 -1.937741	 1.545396
H	 -0.377106	 -1.776518	 2.748767
C	 -2.662014	 -2.658836	 4.011326
H	 -2.265160	 -4.141230	 2.511736
H	 -1.008046	 -3.990535	 3.702704
H	 -3.392852	 -2.100368	 3.435803
H	 -3.202372	 -3.335636	 4.663294
H	 -2.127762	 -1.952507	 4.638245

8 4 3 2 F
