%nprocshared=4
%mem=2GB
#HF/cc-pVTZ nosymm scf=tight opt=ModRedundant

Mol

0 1
O	 1.847685	 1.294399	 -0.000190
C	 1.704209	 0.119472	 -0.000093
C	 0.380337	 -0.600947	 -0.000234
O	 2.715427	 -0.733672	 0.000025
C	 -0.824290	 0.329213	 -0.000115
H	 0.371455	 -1.255476	 -0.865660
H	 0.371410	 -1.255787	 0.864952
C	 -2.144666	 -0.430913	 0.082552
H	 -0.805508	 0.938274	 -0.896757
H	 -0.743412	 1.018443	 0.832778
C	 -3.364759	 0.485515	 0.084370
H	 -2.218361	 -1.122119	 -0.754140
H	 -2.155696	 -1.042139	 0.982285
C	 -4.684446	 -0.274151	 0.166495
H	 -3.355276	 1.095797	 -0.814309
H	 -3.293022	 1.175250	 0.920600
H	 -4.801563	 -0.948101	 -0.675711
H	 -5.528948	 0.405222	 0.165483
H	 -4.738992	 -0.867713	 1.073106
C	 4.020999	 -0.192556	 0.000019
H	 4.182809	 0.412891	 -0.879449
H	 4.692590	 -1.035653	 0.000152
H	 4.182726	 0.413087	 0.879368

9 5 3 6 F
