%nprocshared=4
%mem=2GB
#HF/cc-pVTZ nosymm scf=tight opt=ModRedundant

Mol

0 1
H	 -3.436473	 1.252944	 -1.023892
O	 -3.458596	 0.315260	 -0.960865
C	 -3.176635	 -0.080824	 0.355601
C	 -1.763371	 0.265266	 0.799691
H	 -3.321825	 -1.153438	 0.379502
H	 -3.895468	 0.357385	 1.043382
C	 -0.673390	 -0.426948	 -0.013392
H	 -1.631049	 1.344913	 0.747560
H	 -1.664587	 -0.001624	 1.849167
C	 -0.302861	 -1.804979	 0.528558
H	 0.208580	 0.203457	 -0.038516
H	 -1.008204	 -0.523157	 -1.043513
C	 -1.522559	 -2.675116	 0.825622
H	 0.342496	 -2.303436	 -0.188341
H	 0.283170	 -1.689768	 1.438036
C	 -2.400562	 -2.181464	 1.976825
H	 -1.195537	 -3.690892	 1.035634
H	 -2.132954	 -2.734159	 -0.071346
C	 -1.736550	 -2.226877	 3.350932
H	 -3.300502	 -2.788114	 2.006111
H	 -2.727488	 -1.166048	 1.768329
H	 -1.393694	 -3.229886	 3.584387
H	 -2.434512	 -1.929092	 4.125151
H	 -0.882403	 -1.563245	 3.411176

11 7 4 3 F
