%nprocshared=1
%mem=2GB
#HF/6-31G* nosymm scf=tight 

Mol

0 1
O	 3.225979	 0.970355	 -0.599647
C	 2.701189	 0.057885	 -0.047330
C	 1.245376	 -0.013843	 0.345420
O	 3.347903	 -1.046386	 0.304773
C	 0.455112	 1.231400	 -0.050772
H	 0.838542	 -0.913825	 -0.103701
H	 1.208210	 -0.175333	 1.419774
C	 -0.998893	 1.219485	 0.433193
H	 0.482531	 1.345121	 -1.130325
H	 0.957290	 2.103070	 0.354729
C	 -1.883438	 0.145884	 -0.207175
H	 -1.431207	 2.195402	 0.224832
H	 -1.019646	 1.105716	 1.516076
C	 -3.347647	 0.245583	 0.225435
H	 -1.822183	 0.231698	 -1.291012
H	 -1.510341	 -0.844814	 0.042401
C	 -3.673712	 1.543573	 0.966403
H	 -3.593033	 -0.602336	 0.862659
H	 -3.988527	 0.162506	 -0.650962
C	 -5.136950	 1.633557	 1.398304
H	 -3.033486	 1.628673	 1.841909
H	 -3.433180	 2.392195	 0.329406
H	 -5.336863	 2.564113	 1.920517
H	 -5.399781	 0.817160	 2.065096
H	 -5.802477	 1.585935	 0.540936
C	 4.728119	 -1.109107	 -0.004993
H	 4.882018	 -1.033965	 -1.071845
H	 5.068212	 -2.067527	 0.355250
H	 5.265056	 -0.311663	 0.488280

21 17 14 11 F
15 11 8 5 F
6 3 5 9 F
11 8 5 9 F
2 4 26 27 F
1 2 4 26 F
6 3 2 1 F
