%nprocshared=1
%mem=2GB
#HF/6-31G* nosymm scf=tight 

Mol

0 1
H	 4.315141	 0.032299	 1.580882
C	 3.584668	 -0.480610	 0.963562
C	 2.273579	 0.301508	 0.897984
H	 4.017673	 -0.604488	 -0.025067
H	 3.434077	 -1.470729	 1.384554
C	 1.217350	 -0.386724	 0.039429
H	 2.449622	 1.295505	 0.498774
H	 1.884364	 0.436711	 1.905765
N	 0.000003	 0.397874	 -0.023260
H	 1.595595	 -0.498331	 -0.973210
H	 1.041373	 -1.399526	 0.417109
C	 -1.217365	 -0.386708	 0.039277
H	 -0.000031	 1.072115	 0.718656
C	 -2.452633	 0.504241	 -0.042481
H	 -1.215291	 -1.074557	 -0.802042
H	 -1.269739	 -1.003477	 0.942735
C	 -3.758029	 -0.289423	 -0.010781
H	 -2.394220	 1.093569	 -0.952170
H	 -2.440793	 1.210787	 0.785871
H	 -3.816659	 -0.981993	 -0.845726
H	 -4.617837	 0.370165	 -0.069296
H	 -3.847478	 -0.867502	 0.904682

15 12 14 18 F
