%nprocshared=4
%mem=2GB
#HF/cc-pVTZ nosymm scf=tight opt=ModRedundant

Mol

0 1
O	 -0.427360	 -1.392182	 -0.665010
C	 0.595354	 -1.297218	 -0.076775
C	 1.246364	 -0.005813	 0.348416
O	 1.317782	 -2.342573	 0.292610
C	 0.453207	 1.232821	 -0.049003
H	 1.394842	 -0.066917	 1.419758
H	 2.239873	 0.009843	 -0.088647
C	 -0.998367	 1.217982	 0.432195
H	 0.481498	 1.345443	 -1.127236
H	 0.951413	 2.105557	 0.354893
C	 -2.034799	 1.596280	 -0.624737
H	 -1.083500	 1.911014	 1.263834
H	 -1.236068	 0.235516	 0.834114
C	 -1.838536	 0.855510	 -1.944785
H	 -3.029759	 1.384999	 -0.239655
H	 -2.002071	 2.665020	 -0.815158
C	 -0.574035	 1.269687	 -2.691958
H	 -2.702525	 1.024472	 -2.582997
H	 -1.806895	 -0.214875	 -1.754678
C	 -0.385911	 0.526675	 -4.010412
H	 -0.604300	 2.338976	 -2.882813
H	 0.290721	 1.098823	 -2.056459
H	 0.519801	 0.843685	 -4.514570
H	 -1.218390	 0.705797	 -4.682724
H	 -0.317322	 -0.544180	 -3.849871
C	 0.824678	 -3.623490	 -0.043565
H	 -0.139967	 -3.792406	 0.411591
H	 1.544729	 -4.329140	 0.337866
H	 0.731980	 -3.727573	 -1.114467

11 8 5 9 F
