%nprocshared=1
%mem=2GB
#HF/6-31G* nosymm scf=tight 

Mol

0 1
O	 3.225979	 0.970355	 -0.599647
C	 2.701189	 0.057885	 -0.047330
C	 1.245376	 -0.013843	 0.345420
O	 3.347903	 -1.046386	 0.304773
C	 0.664603	 1.340628	 0.745700
H	 0.711645	 -0.454427	 -0.490170
H	 1.165307	 -0.729791	 1.159487
C	 -0.781706	 1.268113	 1.247124
H	 0.727726	 2.021346	 -0.097958
H	 1.288864	 1.768455	 1.522671
C	 -1.810958	 0.855263	 0.191044
H	 -1.053870	 2.247752	 1.633077
H	 -0.838309	 0.584608	 2.093071
C	 -3.249166	 0.904393	 0.710797
H	 -1.718667	 1.510585	 -0.673741
H	 -1.600281	 -0.150895	 -0.164250
C	 -4.285924	 0.488793	 -0.334449
H	 -3.472587	 1.912329	 1.056314
H	 -3.339477	 0.257548	 1.582081
C	 -5.719840	 0.544276	 0.191392
H	 -4.196392	 1.133519	 -1.206203
H	 -4.066829	 -0.520095	 -0.677847
H	 -6.431082	 0.244299	 -0.571993
H	 -5.981677	 1.549103	 0.510704
H	 -5.850845	 -0.116809	 1.043495
C	 4.728119	 -1.109107	 -0.004993
H	 4.882018	 -1.033965	 -1.071845
H	 5.068212	 -2.067527	 0.355250
H	 5.265056	 -0.311663	 0.488280

21 17 14 11 F
17 14 11 15 F
15 11 8 5 F
6 3 5 9 F
11 8 5 9 F
2 4 26 27 F
1 2 4 26 F
