%nprocshared=4
%mem=2GB
#HF/cc-pVTZ nosymm scf=tight opt=ModRedundant

Mol

0 1
H	 -0.132946	 -0.685134	 -0.858375
N	 -0.625934	 -0.663929	 -0.000707
C	 -1.978635	 -0.158664	 0.001017
C	 0.006066	 -1.112754	 1.106412
H	 -2.519057	 -0.493535	 -0.876362
H	 -1.938890	 0.917202	 -0.004137
H	 -2.514266	 -0.485137	 0.884506
C	 1.418771	 -1.600450	 0.871386
O	 -0.501635	 -1.133691	 2.188483
H	 2.034053	 -0.800679	 0.475919
H	 1.831103	 -1.941639	 1.806608
H	 1.424675	 -2.414319	 0.155703

4 2 3 5 F
