%nprocshared=1
%mem=2GB
#HF/6-31G* nosymm scf=tight opt=ModRedundant

Mol

0 1
H	 -3.420663	 1.227371	 -1.044276
O	 -3.452007	 0.283848	 -0.965577
C	 -3.181085	 -0.079926	 0.364119
C	 -1.765924	 0.277073	 0.805136
H	 -3.327791	 -1.152017	 0.410903
H	 -3.905698	 0.375695	 1.036898
C	 -0.677594	 -0.417312	 -0.014550
H	 -1.637766	 1.358238	 0.744969
H	 -1.659588	 0.017670	 1.857098
C	 0.737012	 -0.099439	 0.474353
H	 -0.778390	 -0.130214	 -1.056723
H	 -0.838680	 -1.493456	 0.022315
C	 1.820700	 -0.802746	 -0.347270
H	 0.887980	 0.977003	 0.444347
H	 0.833429	 -0.392227	 1.519142
C	 3.251454	 -0.586139	 0.158870
H	 1.754173	 -0.476786	 -1.384102
H	 1.614829	 -1.871113	 -0.352400
C	 3.752456	 0.855366	 0.051796
H	 3.918712	 -1.229579	 -0.409498
H	 3.320835	 -0.916643	 1.193354
H	 3.683012	 1.217427	 -0.970568
H	 4.792284	 0.925688	 0.356180
H	 3.183520	 1.531318	 0.681530

11 7 4 3 F
