%nprocshared=4
%mem=2GB
#HF/cc-pVTZ nosymm scf=tight opt=ModRedundant

Mol

0 1
H	 2.336834	 2.587126	 -0.596423
O	 3.123450	 2.177258	 -0.904766
C	 3.481089	 1.115402	 -0.059883
C	 2.576689	 -0.100243	 -0.197560
H	 4.492279	 0.847050	 -0.334585
H	 3.506050	 1.446886	 0.976430
C	 1.135375	 0.136629	 0.247811
H	 2.590679	 -0.425595	 -1.233469
H	 3.007613	 -0.905743	 0.392247
C	 0.266027	 -1.114095	 0.126324
H	 0.703517	 0.935826	 -0.345304
H	 1.129235	 0.476075	 1.282232
C	 -1.170088	 -0.954266	 0.628601
H	 0.249204	 -1.437615	 -0.911596
H	 0.737625	 -1.917644	 0.685228
C	 -2.041121	 -0.006551	 -0.194127
H	 -1.639144	 -1.934285	 0.637437
H	 -1.152777	 -0.619597	 1.663421
C	 -3.489218	 0.042606	 0.286507
H	 -2.021022	 -0.316397	 -1.236748
H	 -1.629224	 0.997749	 -0.167210
C	 -4.219984	 1.311773	 -0.139038
H	 -4.022855	 -0.824300	 -0.093339
H	 -3.510372	 -0.038577	 1.370031
H	 -4.244251	 1.405725	 -1.219696
H	 -5.244345	 1.313233	 0.215630
H	 -3.732090	 2.196311	 0.257073

20 16 19 22 F
