%nprocshared=1
%mem=2GB
#HF/6-31G* nosymm scf=tight 

Mol

0 1
O	 3.226247	 0.970860	 -0.598556
C	 2.701189	 0.057885	 -0.047330
C	 1.244996	 -0.014558	 0.343877
O	 3.347903	 -1.046386	 0.304773
C	 0.454731	 1.230665	 -0.052378
H	 0.838920	 -0.914402	 -0.106206
H	 1.206776	 -0.176708	 1.418094
C	 -0.999768	 1.217981	 0.430082
H	 0.483224	 1.345046	 -1.131834
H	 0.956204	 2.102254	 0.354165
C	 -1.883300	 0.144476	 -0.211844
H	 -1.432188	 2.193881	 0.221864
H	 -1.021599	 1.103552	 1.512874
C	 -3.347986	 0.243434	 0.219318
H	 -1.820957	 0.230964	 -1.295565
H	 -1.510135	 -0.846250	 0.037519
C	 -4.239331	 -0.827632	 -0.411915
H	 -3.733285	 1.228346	 -0.038999
H	 -3.410017	 0.167778	 1.303812
C	 -5.701096	 -0.719461	 0.020800
H	 -4.177743	 -0.754102	 -1.495632
H	 -3.858325	 -1.812853	 -0.151235
H	 -6.307192	 -1.491631	 -0.442889
H	 -6.122025	 0.242704	 -0.257141
H	 -5.799967	 -0.823599	 1.097672
C	 4.728119	 -1.109107	 -0.004993
H	 4.882018	 -1.033965	 -1.071845
H	 5.068212	 -2.067527	 0.355250
H	 5.265056	 -0.311663	 0.488280

21 17 14 11 F
17 14 11 15 F
15 11 8 5 F
6 3 5 9 F
11 8 5 9 F
2 4 26 27 F
6 3 2 1 F
