%nprocshared=4
%mem=2GB
#HF/cc-pVTZ nosymm scf=tight opt=ModRedundant

Mol

0 1
O	 1.097162	 1.262642	 0.325969
C	 1.121787	 0.124983	 0.000110
C	 0.217685	 -0.957514	 0.531393
O	 1.969101	 -0.353489	 -0.896273
C	 -1.251248	 -0.562411	 0.576704
H	 0.369702	 -1.835153	 -0.088383
H	 0.583214	 -1.225490	 1.517313
C	 -1.757795	 -0.052596	 -0.769330
H	 -1.394055	 0.199080	 1.335175
H	 -1.841923	 -1.415040	 0.892412
C	 -3.228483	 0.348361	 -0.734640
H	 -1.160005	 0.799547	 -1.081961
H	 -1.611920	 -0.819769	 -1.525243
H	 -3.400851	 1.138817	 -0.012107
H	 -3.560307	 0.705994	 -1.702456
H	 -3.856061	 -0.492237	 -0.458740
C	 3.226978	 0.281687	 -1.004047
H	 3.107866	 1.319775	 -1.276836
H	 3.762124	 -0.246898	 -1.776112
H	 3.765395	 0.222432	 -0.069799

1 2 4 17 F
