%nprocshared=4
%mem=2GB
#HF/cc-pVTZ nosymm scf=tight opt=ModRedundant

Mol

0 1
H	 -3.436473	 1.252944	 -1.023892
O	 -3.458596	 0.315260	 -0.960865
C	 -3.176635	 -0.080824	 0.355601
C	 -1.763371	 0.265266	 0.799691
H	 -3.321825	 -1.153438	 0.379502
H	 -3.895468	 0.357385	 1.043382
C	 -0.673390	 -0.426948	 -0.013392
H	 -1.631049	 1.344913	 0.747560
H	 -1.664587	 -0.001624	 1.849167
C	 0.737842	 -0.043159	 0.423759
H	 -0.806103	 -0.190518	 -1.063345
H	 -0.797221	 -1.503753	 0.074146
C	 1.818215	 -0.587271	 -0.508863
H	 0.807038	 1.038946	 0.479893
H	 0.916962	 -0.412975	 1.431236
C	 1.961772	 -2.110176	 -0.508444
H	 2.774336	 -0.138020	 -0.250300
H	 1.596853	 -0.263148	 -1.522058
C	 2.462374	 -2.703803	 0.806146
H	 2.650337	 -2.389822	 -1.299932
H	 1.006574	 -2.560314	 -0.766115
H	 3.414153	 -2.267685	 1.092494
H	 2.605181	 -3.774543	 0.714689
H	 1.764961	 -2.537536	 1.618289

13 10 7 11 F
