%nprocshared=4
%mem=2GB
#HF/cc-pVTZ nosymm scf=tight opt=ModRedundant

Mol

0 1
O	 -2.071633	 -1.227563	 -0.223463
C	 -1.652164	 -0.152425	 0.058082
C	 -0.327811	 0.006324	 0.778296
C	 -2.402515	 1.108629	 -0.298924
C	 0.067336	 -1.288388	 1.498715
H	 0.449925	 0.288683	 0.076495
H	 -0.441390	 0.804486	 1.500704
C	 1.388364	 -1.163724	 2.252089
H	 0.140917	 -2.101196	 0.780646
H	 -0.724066	 -1.556233	 2.190313
C	 1.779143	 -2.445082	 2.980495
H	 2.175957	 -0.889410	 1.555688
H	 1.315219	 -0.349575	 2.967177
H	 1.894334	 -3.270991	 2.286494
H	 1.024721	 -2.727296	 3.706836
H	 2.717802	 -2.323781	 3.508328
H	 -3.240910	 0.874416	 -0.936711
H	 -1.747554	 1.818823	 -0.790984
H	 -2.760419	 1.579708	 0.610998

5 3 2 4 F
