%nprocshared=1
%mem=2GB
#HF/6-31G* nosymm scf=tight opt=ModRedundant

Mol

0 1
H	 0.469937	 3.351668	 0.522587
C	 0.466260	 2.641364	 1.358696
C	 -0.803728	 1.843645	 1.511613
O	 1.417194	 2.544816	 2.064496
C	 -1.220012	 1.144545	 0.209990
H	 -0.666695	 1.133789	 2.319100
H	 -1.585679	 2.541183	 1.809353
C	 -0.252658	 0.041456	 -0.226725
H	 -2.210614	 0.721652	 0.348391
H	 -1.315123	 1.884611	 -0.583114
C	 1.180775	 0.282413	 0.250794
H	 -0.266029	 -0.034465	 -1.312038
H	 -0.597733	 -0.921000	 0.146291
C	 2.148627	 -0.814315	 -0.201312
H	 1.516199	 1.249228	 -0.115937
H	 1.192670	 0.346017	 1.338083
C	 3.580890	 -0.659131	 0.322722
H	 2.166869	 -0.852443	 -1.289387
H	 1.762857	 -1.776509	 0.128956
C	 4.324889	 0.564933	 -0.213704
H	 4.142010	 -1.551473	 0.056605
H	 3.564836	 -0.624694	 1.410140
H	 4.342616	 0.565491	 -1.300421
H	 3.866655	 1.493402	 0.110242
H	 5.353900	 0.572371	 0.132816

3 5 8 12 F
