%nprocshared=1
%mem=2GB
#HF/6-31G* nosymm scf=tight 

Mol

0 1
H	 -2.795996	 0.222505	 0.698346
C	 -2.454765	 1.156676	 0.256727
O	 -1.074489	 1.163264	 0.083143
H	 -2.906706	 1.268126	 -0.719218
H	 -2.782701	 1.978573	 0.891843
C	 -0.350443	 1.033391	 1.265572
C	 1.122449	 0.943568	 0.941954
H	 -0.523618	 1.895033	 1.911544
H	 -0.653293	 0.140557	 1.808834
O	 1.392611	 -0.295398	 0.366430
H	 1.390671	 1.751784	 0.264569
H	 1.699247	 1.068206	 1.859267
C	 2.706965	 -0.449871	 -0.062409
H	 2.756559	 -0.644779	 -1.131878
H	 3.305899	 0.433456	 0.155466
H	 3.125548	 -1.294566	 0.467107

3 6 7 11 F
2 3 6 7 F
