%nprocshared=4
%mem=2GB
#HF/cc-pVTZ nosymm scf=tight opt=ModRedundant

Mol

0 1
H	 2.614283	 2.028610	 0.296620
O	 3.358864	 1.662087	 -0.142800
C	 3.565468	 0.338079	 0.273842
C	 2.533667	 -0.637565	 -0.272227
H	 4.548038	 0.064914	 -0.086598
H	 3.593945	 0.282242	 1.360360
C	 3.118943	 -1.959720	 -0.763355
H	 1.795981	 -0.828962	 0.501301
H	 2.012345	 -0.148553	 -1.091671
C	 2.058301	 -2.899804	 -1.334422
H	 3.633325	 -2.450575	 0.056081
H	 3.867598	 -1.760162	 -1.528193
C	 2.598478	 -4.210466	 -1.909425
H	 1.325284	 -3.121730	 -0.562631
H	 1.520308	 -2.376371	 -2.119948
C	 3.202523	 -5.166705	 -0.882547
H	 1.785280	 -4.719850	 -2.419095
H	 3.340070	 -3.988051	 -2.673446
C	 3.635961	 -6.498759	 -1.489319
H	 2.475047	 -5.352526	 -0.095325
H	 4.060015	 -4.705698	 -0.401732
C	 4.242938	 -7.454436	 -0.467482
H	 2.780124	 -6.973194	 -1.961582
H	 4.356459	 -6.314316	 -2.281737
H	 3.535110	 -7.684327	 0.322054
H	 4.536852	 -8.389697	 -0.930092
H	 5.124444	 -7.023999	 -0.003776

8 4 3 2 F
