%nprocshared=4
%mem=2GB
#HF/cc-pVTZ nosymm scf=tight opt=ModRedundant

Mol

0 1
H	 1.386776	 2.708581	 6.124668
C	 0.372533	 2.351918	 5.986940
C	 0.007261	 2.286494	 4.507880
H	 0.300605	 1.373101	 6.448414
H	 -0.289702	 3.021457	 6.526349
C	 -1.420672	 1.797680	 4.275419
H	 0.701831	 1.629808	 3.996730
H	 0.124532	 3.272975	 4.065245
C	 -1.816638	 1.727925	 2.803946
H	 -1.545500	 0.818508	 4.720918
H	 -2.110580	 2.466014	 4.782510
C	 -1.158526	 0.603377	 2.022431
H	 -2.888503	 1.568391	 2.717810
H	 -1.618717	 2.670929	 2.302860
C	 -1.180025	 0.697761	 0.509157
O	 -0.662009	 -0.328681	 2.568337
C	 -2.285431	 -0.137488	 -0.145671
H	 -0.209921	 0.373472	 0.157623
H	 -1.304974	 1.741273	 0.232271
C	 -3.646545	 0.082747	 0.508954
H	 -2.348635	 0.118247	 -1.199806
H	 -2.034895	 -1.192387	 -0.096473
C	 -4.757412	 -0.737227	 -0.138149
H	 -3.900211	 1.137405	 0.459735
H	 -3.580878	 -0.166775	 1.564416
H	 -4.867876	 -0.486707	 -1.187777
H	 -4.549650	 -1.800049	 -0.072540
H	 -5.709585	 -0.556397	 0.346597

16 12 15 17 F
