%nprocshared=4
%mem=2GB
#HF/cc-pVTZ nosymm scf=tight opt=ModRedundant

Mol

0 1
H	 2.867672	 -0.456275	 0.875795
C	 2.403497	 -0.020426	 0.000000
N	 0.989899	 -0.304564	 0.000000
H	 2.867672	 -0.456275	 -0.875795
H	 2.620366	 1.051270	 0.000000
C	 0.218958	 0.722753	 -0.669205
C	 0.473633	 -0.544269	 1.331758
H	 0.332848	 1.693047	 -0.175946
H	 0.574442	 0.828834	 -1.687588
C	 -1.249396	 0.343419	 -0.686085
H	 1.015982	 -1.367844	 1.781546
H	 0.606680	 0.330725	 1.975519
C	 -1.001264	 -0.891049	 1.263465
H	 -1.843616	 1.145460	 -1.101127
H	 -1.388819	 -0.543261	 -1.301275
O	 -1.724418	 0.106939	 0.606036
H	 -1.416124	 -0.981328	 2.257632
H	 -1.127847	 -1.841609	 0.749159

6 3 2 5 F
