%nprocshared=1
%mem=2GB
#HF/6-31G* nosymm scf=tight opt=ModRedundant

Mol

0 1
H	 1.541107	 2.393291	 -2.881630
O	 2.429643	 2.071278	 -2.925016
C	 2.997600	 2.073988	 -1.639920
C	 2.445178	 0.977207	 -0.736246
H	 4.059676	 1.925772	 -1.787234
H	 2.869546	 3.047843	 -1.168763
C	 0.953501	 1.120333	 -0.424346
H	 2.628565	 0.015875	 -1.209086
H	 3.011585	 0.986662	 0.193518
C	 0.441780	 0.035811	 0.527900
H	 0.389584	 1.083951	 -1.352268
H	 0.768240	 2.099667	 0.017155
C	 -1.027319	 0.182458	 0.940919
H	 0.591477	 -0.940996	 0.071517
H	 1.054791	 0.047087	 1.426672
C	 -2.037799	 -0.007733	 -0.193645
H	 -1.238114	 -0.548317	 1.718961
H	 -1.176605	 1.160042	 1.396860
C	 -3.489788	 0.042957	 0.286558
H	 -1.854762	 -0.964450	 -0.680781
H	 -1.893172	 0.754610	 -0.955365
C	 -4.216917	 1.317354	 -0.141063
H	 -4.025645	 -0.823308	 -0.095450
H	 -3.513059	 -0.038752	 1.371301
H	 -4.239342	 1.411634	 -1.223113
H	 -5.243387	 1.322503	 0.212445
H	 -3.726170	 2.201406	 0.256408

20 16 19 22 F
