%nprocshared=4
%mem=2GB
#HF/cc-pVTZ nosymm scf=tight opt=ModRedundant

Mol

0 1
H	 5.269878	 0.195679	 1.068175
C	 4.673900	 -0.208485	 0.258034
C	 3.190199	 -0.204714	 0.610086
H	 4.865136	 0.391893	 -0.624684
H	 5.027838	 -1.214511	 0.056939
C	 2.319208	 -0.778154	 -0.505491
H	 2.876954	 0.809861	 0.827925
H	 3.035335	 -0.782733	 1.518235
C	 3.100249	 -1.180575	 -1.752456
H	 1.777348	 -1.639752	 -0.135537
H	 1.578020	 -0.037661	 -0.792010
C	 3.954052	 -2.427018	 -1.591570
H	 2.411643	 -1.389443	 -2.567294
H	 3.726794	 -0.364053	 -2.099228
C	 5.042521	 -2.666459	 -2.619809
O	 3.768704	 -3.200749	 -0.708246
C	 4.511977	 -2.884170	 -4.040896
H	 5.601410	 -3.533129	 -2.293672
H	 5.714684	 -1.812441	 -2.613040
C	 5.623526	 -3.216909	 -5.032567
H	 3.786284	 -3.692787	 -4.030682
H	 3.985495	 -1.998651	 -4.382471
C	 5.108160	 -3.443379	 -6.449689
H	 6.150973	 -4.103526	 -4.693770
H	 6.352270	 -2.411004	 -5.037326
H	 4.400283	 -4.264689	 -6.481931
H	 4.606454	 -2.560034	 -6.830548
H	 5.919877	 -3.680101	 -7.127472

10 6 3 2 F
