%nprocshared=4
%mem=2GB
#HF/6-31G* nosymm scf=tight opt=ModRedundant

Mol

0 1
O	 -2.042549	 -1.228399	 -0.269030
C	 -1.653912	 -0.146171	 0.050137
C	 -0.332303	 0.024011	 0.778412
C	 -2.438579	 1.106236	 -0.272369
C	 0.076576	 1.504357	 0.835579
H	 -0.396670	 -0.380970	 1.784508
H	 0.418046	 -0.538767	 0.234189
C	 1.419699	 1.717698	 1.535249
H	 -0.691280	 2.078564	 1.351105
H	 0.124845	 1.889535	 -0.178546
C	 1.833056	 3.188007	 1.585604
H	 1.367342	 1.321485	 2.547029
H	 2.186410	 1.143581	 1.020359
H	 1.101665	 3.783402	 2.124700
H	 1.925371	 3.603222	 0.586346
H	 2.789617	 3.308715	 2.084048
H	 -3.277823	 0.863061	 -0.908988
H	 -1.806773	 1.843019	 -0.759671
H	 -2.802853	 1.554979	 0.648059

5 3 2 4 F
