%nprocshared=4
%mem=2GB
#HF/cc-pVTZ nosymm scf=tight opt=ModRedundant

Mol

0 1
O	 1.816773	 1.332945	 -0.963344
C	 0.781622	 1.719742	 -1.387478
C	 -0.518669	 0.958420	 -1.351787
O	 0.630629	 2.901797	 -1.962250
C	 -0.824290	 0.329213	 -0.000115
H	 -1.301960	 1.647247	 -1.650821
H	 -0.472151	 0.207303	 -2.133516
C	 -1.352596	 -1.096329	 -0.129503
H	 -1.547018	 0.943571	 0.524768
H	 0.073150	 0.335545	 0.608040
C	 -2.791361	 -1.158864	 -0.633999
H	 -0.712630	 -1.660555	 -0.804294
H	 -1.290301	 -1.595274	 0.835075
C	 -3.319263	 -2.583603	 -0.763803
H	 -2.854559	 -0.661651	 -1.597816
H	 -3.431709	 -0.597006	 0.040115
H	 -2.719402	 -3.161828	 -1.458826
H	 -4.341515	 -2.591961	 -1.123893
H	 -3.301490	 -3.096549	 0.192128
C	 1.774850	 3.725117	 -2.063383
H	 2.168391	 3.953019	 -1.083894
H	 1.449161	 4.628457	 -2.553025
H	 2.542901	 3.240436	 -2.647673

9 5 3 6 F
