%nprocshared=4
%mem=2GB
#HF/cc-pVTZ nosymm scf=tight opt=ModRedundant

Mol

0 1
H	 -3.436473	 1.252944	 -1.023892
O	 -3.458596	 0.315260	 -0.960865
C	 -3.176635	 -0.080824	 0.355601
C	 -1.763371	 0.265266	 0.799691
H	 -3.321825	 -1.153438	 0.379502
H	 -3.895468	 0.357385	 1.043382
C	 -1.274539	 -0.548433	 1.994371
H	 -1.085110	 0.127471	 -0.041046
H	 -1.735479	 1.325225	 1.040726
C	 0.156370	 -0.211920	 2.405744
H	 -1.347240	 -1.604931	 1.761046
H	 -1.941239	 -0.376005	 2.835968
C	 0.637716	 -1.026145	 3.605073
H	 0.814394	 -0.376213	 1.557862
H	 0.224056	 0.847651	 2.643619
C	 2.037929	 -0.668070	 4.106105
H	 0.607127	 -2.084248	 3.355410
H	 -0.065317	 -0.888589	 4.422045
C	 3.167123	 -0.992162	 3.130897
H	 2.216959	 -1.202286	 5.034188
H	 2.069888	 0.389418	 4.355340
H	 3.156538	 -2.042817	 2.858703
H	 4.132299	 -0.776967	 3.575158
H	 3.093701	 -0.413499	 2.218010

7 4 3 2 F
