%nprocshared=4
%mem=2GB
#HF/6-31G* nosymm scf=tight opt=ModRedundant

Mol

0 1
O	 3.735762	 -1.987182	 2.270620
C	 2.973341	 -1.523224	 1.485433
C	 1.481715	 -1.393506	 1.677824
O	 3.347903	 -1.046386	 0.304773
C	 1.003347	 -1.918437	 3.029758
H	 1.232386	 -0.347074	 1.536383
H	 1.002993	 -1.925896	 0.859849
C	 -0.519523	 -1.890608	 3.198836
H	 1.472111	 -1.344586	 3.823530
H	 1.355410	 -2.937361	 3.149204
C	 -1.138909	 -0.490662	 3.239089
H	 -0.765070	 -2.405820	 4.124573
H	 -0.983555	 -2.467932	 2.400474
C	 -2.642941	 -0.513343	 3.519041
H	 -0.639394	 0.099553	 4.005868
H	 -0.965021	 0.023231	 2.296408
C	 -3.273604	 0.879856	 3.556363
H	 -2.824682	 -1.014675	 4.468184
H	 -3.141759	 -1.112293	 2.758687
C	 -4.774980	 0.848615	 3.840254
H	 -2.775645	 1.480028	 4.314962
H	 -3.096754	 1.380895	 2.606908
H	 -5.192858	 1.850404	 3.860347
H	 -4.982852	 0.384341	 4.800168
H	 -5.306255	 0.283912	 3.079247
C	 4.728119	 -1.109107	 -0.004993
H	 4.882018	 -1.033965	 -1.071845
H	 5.068212	 -2.067527	 0.355250
H	 5.265056	 -0.311663	 0.488280

2 4 26 27 F
