%nprocshared=4
%mem=2GB
#HF/cc-pVTZ nosymm scf=tight opt=ModRedundant

Mol

0 1
O	 0.395927	 1.296676	 -0.000076
C	 0.503051	 0.114301	 -0.000074
C	 -0.701422	 -0.805636	 -0.000109
C	 1.858118	 -0.556123	 0.000212
C	 -1.434447	 -0.867292	 1.330663
H	 -1.366162	 -0.475118	 -0.794032
H	 -0.359862	 -1.792734	 -0.300800
H	 -1.796008	 0.110347	 1.620013
H	 -2.281393	 -1.539545	 1.262739
H	 -0.780802	 -1.218953	 2.117629
H	 1.961106	 -1.191101	 -0.872843
H	 2.636688	 0.191085	 -0.000109
H	 1.961070	 -1.190284	 0.873873

6 3 2 1 F
