%nprocshared=4
%mem=2GB
#HF/6-31G* nosymm scf=tight opt=ModRedundant

Mol

0 1
H	 -3.420663	 1.227371	 -1.044276
O	 -3.452007	 0.283848	 -0.965577
C	 -3.181085	 -0.079926	 0.364119
C	 -1.765924	 0.277073	 0.805136
H	 -3.327791	 -1.152017	 0.410903
H	 -3.905698	 0.375695	 1.036898
C	 -0.677594	 -0.417312	 -0.014550
H	 -1.637766	 1.358238	 0.744969
H	 -1.659588	 0.017670	 1.857098
C	 0.738335	 -0.034840	 0.421385
H	 -0.814977	 -0.178223	 -1.064632
H	 -0.802730	 -1.495410	 0.071702
C	 1.822265	 -0.738362	 -0.399735
H	 0.853533	 1.043532	 0.342250
H	 0.871597	 -0.279636	 1.474438
C	 2.152487	 -0.065183	 -1.736873
H	 1.523041	 -1.769379	 -0.581846
H	 2.731903	 -0.788110	 0.195159
C	 1.013020	 -0.085303	 -2.757469
H	 3.016067	 -0.564477	 -2.169569
H	 2.457059	 0.963746	 -1.555922
H	 0.678928	 -1.101592	 -2.948980
H	 1.335225	 0.339233	 -3.703403
H	 0.155133	 0.486992	 -2.420316

17 13 10 7 F
