%nprocshared=4
%mem=2GB
#HF/6-31G* nosymm scf=tight opt=ModRedundant

Mol

0 1
H	 -3.420663	 1.227371	 -1.044276
O	 -3.452007	 0.283848	 -0.965577
C	 -3.181085	 -0.079926	 0.364119
C	 -1.765924	 0.277073	 0.805136
H	 -3.327791	 -1.152017	 0.410903
H	 -3.905698	 0.375695	 1.036898
C	 -0.677594	 -0.417312	 -0.014550
H	 -1.637766	 1.358238	 0.744969
H	 -1.659588	 0.017670	 1.857098
C	 0.738335	 -0.034840	 0.421385
H	 -0.814977	 -0.178223	 -1.064632
H	 -0.802730	 -1.495410	 0.071702
C	 1.822265	 -0.738362	 -0.399735
H	 0.853533	 1.043532	 0.342250
H	 0.871597	 -0.279636	 1.474438
C	 1.402267	 -2.087387	 -0.994621
H	 2.707220	 -0.879431	 0.218852
H	 2.123547	 -0.081628	 -1.213213
C	 1.123816	 -3.179510	 0.039854
H	 2.191051	 -2.430867	 -1.659551
H	 0.521134	 -1.946989	 -1.617595
H	 1.984121	 -3.333156	 0.685924
H	 0.904607	 -4.124850	 -0.447093
H	 0.275683	 -2.935088	 0.670799

17 13 10 7 F
