%nprocshared=4
%mem=2GB
#HF/cc-pVTZ nosymm scf=tight opt=ModRedundant

Mol

0 1
H	 2.614283	 2.028610	 0.296620
O	 3.358864	 1.662087	 -0.142800
C	 3.565468	 0.338079	 0.273842
C	 2.533667	 -0.637565	 -0.272227
H	 4.548038	 0.064914	 -0.086598
H	 3.593945	 0.282242	 1.360360
C	 1.114816	 -0.402372	 0.240993
H	 2.544552	 -0.580764	 -1.356576
H	 2.850574	 -1.642962	 -0.005497
C	 1.014414	 0.808837	 1.167130
H	 0.771900	 -1.287845	 0.765731
H	 0.444601	 -0.260763	 -0.605201
C	 -0.398949	 1.135724	 1.652727
H	 1.662611	 0.655675	 2.026554
H	 1.406823	 1.676530	 0.644071
C	 -1.017353	 0.098275	 2.588152
H	 -0.369617	 2.091633	 2.168388
H	 -1.049629	 1.277588	 0.792701
C	 -2.384625	 0.516191	 3.123243
H	 -0.344115	 -0.075556	 3.424813
H	 -1.118160	 -0.853788	 2.075885
C	 -3.006576	 -0.519042	 4.054565
H	 -2.290157	 1.462371	 3.648978
H	 -3.056032	 0.698457	 2.288345
H	 -2.373568	 -0.700006	 4.916998
H	 -3.973572	 -0.190347	 4.417861
H	 -3.149442	 -1.467237	 3.546758

10 7 4 8 F
