%nprocshared=4
%mem=2GB
#HF/cc-pVTZ nosymm scf=tight opt=ModRedundant

Mol

0 1
O	 2.725584	 1.573980	 0.424729
C	 2.399081	 0.849039	 1.306753
C	 1.115679	 0.044867	 1.261822
C	 3.251553	 0.679814	 2.544039
C	 0.288398	 0.247429	 0.000314
H	 1.381348	 -1.002724	 1.384463
H	 0.537769	 0.300865	 2.146972
C	 -0.993089	 -0.581367	 -0.000217
H	 0.891133	 -0.005483	 -0.864476
H	 0.046930	 1.299329	 -0.101332
C	 -2.258482	 0.271340	 0.000669
H	 -1.002280	 -1.233920	 -0.870484
H	 -1.002061	 -1.235367	 0.868958
C	 -3.544441	 -0.550271	 -0.000253
H	 -2.250545	 0.925250	 -0.867923
H	 -2.250598	 0.923423	 0.870642
C	 -4.804551	 0.308747	 0.000556
H	 -3.553737	 -1.201524	 -0.870151
H	 -3.553831	 -1.203282	 0.868313
H	 -4.842050	 0.949078	 -0.874436
H	 -5.698404	 -0.304480	 -0.000254
H	 -4.842277	 0.947103	 0.876982
H	 3.538955	 -0.359299	 2.661057
H	 4.134927	 1.294713	 2.466959
H	 2.688030	 0.959501	 3.427361

9 5 8 12 F
