%nprocshared=4
%mem=2GB
#HF/6-31G* nosymm scf=tight opt=ModRedundant

Mol

0 1
O	 -2.821601	 1.309235	 -0.001213
C	 -2.668563	 0.129746	 -0.000350
C	 -3.801572	 -0.864014	 -0.000442
O	 -1.481751	 -0.454642	 0.000584
H	 -4.417280	 -0.689587	 -0.874708
H	 -3.443784	 -1.883046	 -0.000565
H	 -4.417179	 -0.689832	 0.873954
C	 -0.334255	 0.388708	 0.000906
C	 0.891947	 -0.504646	 0.000751
H	 -0.365390	 1.025305	 -0.873475
H	 -0.365484	 1.024911	 0.875569
C	 2.191998	 0.301789	 0.000897
H	 0.855148	 -1.151283	 -0.871571
H	 0.855132	 -1.151660	 0.872805
C	 1.975325	 1.781644	 -0.320675
H	 2.674581	 0.213788	 0.972728
H	 2.884330	 -0.124062	 -0.723265
C	 3.273685	 2.587327	 -0.319195
H	 1.283988	 2.208864	 0.402243
H	 1.495251	 1.871522	 -1.292539
H	 3.760724	 2.544616	 0.650847
H	 3.087758	 3.631540	 -0.550033
H	 3.973425	 2.204971	 -1.056880

16 12 9 13 F
