%nprocshared=4
%mem=2GB
#HF/cc-pVTZ nosymm scf=tight opt=ModRedundant

Mol

0 1
O	 0.623971	 1.347241	 -0.000777
C	 0.485107	 0.171416	 -0.000134
C	 1.606966	 -0.836201	 0.000174
O	 -0.695554	 -0.422406	 0.000602
C	 2.988788	 -0.202529	 -0.000115
H	 1.465110	 -1.474645	 -0.864821
H	 1.465209	 -1.474077	 0.865596
H	 3.131767	 0.419673	 -0.873407
H	 3.750876	 -0.972315	 0.000098
H	 3.131883	 0.420264	 0.872742
C	 -1.386198	 -0.526142	 -1.236547
C	 -2.693803	 -1.237032	 -0.977140
H	 -0.771311	 -1.070253	 -1.939544
H	 -1.545938	 0.465449	 -1.635989
H	 -2.521344	 -2.228082	 -0.576578
H	 -3.247613	 -1.333309	 -1.903562
H	 -3.300418	 -0.683626	 -0.271357

11 4 2 3 F
