%nprocshared=4
%mem=2GB
#HF/cc-pVTZ nosymm scf=tight opt=ModRedundant

Mol

0 1
O	 0.395927	 1.296676	 -0.000076
C	 0.503051	 0.114301	 -0.000074
C	 -0.701422	 -0.805636	 -0.000109
C	 1.858118	 -0.556123	 0.000212
C	 -1.290530	 -1.055724	 1.379198
H	 -1.443700	 -0.373601	 -0.666295
H	 -0.400697	 -1.739263	 -0.468453
H	 -1.612410	 -0.130047	 1.837177
H	 -2.144819	 -1.718362	 1.308803
H	 -0.560173	 -1.507819	 2.036784
H	 1.961106	 -1.191101	 -0.872843
H	 2.636688	 0.191085	 -0.000109
H	 1.961070	 -1.190284	 0.873873

6 3 2 1 F
