%nprocshared=4
%mem=2GB
#HF/cc-pVTZ nosymm scf=tight opt=ModRedundant

Mol

0 1
H	 -3.436473	 1.252944	 -1.023892
O	 -3.458596	 0.315260	 -0.960865
C	 -3.176635	 -0.080824	 0.355601
C	 -1.763371	 0.265266	 0.799691
H	 -3.321825	 -1.153438	 0.379502
H	 -3.895468	 0.357385	 1.043382
C	 -0.673390	 -0.426948	 -0.013392
H	 -1.631049	 1.344913	 0.747560
H	 -1.664587	 -0.001624	 1.849167
C	 -0.015937	 0.490482	 -1.041035
H	 -1.095519	 -1.291107	 -0.514341
H	 0.085127	 -0.809151	 0.665635
C	 0.389093	 1.842985	 -0.458167
H	 0.853970	 -0.010490	 -1.454772
H	 -0.699768	 0.650552	 -1.872064
C	 -0.777685	 2.737079	 -0.034999
H	 1.003441	 2.375154	 -1.180816
H	 1.022454	 1.671512	 0.407900
C	 -1.655583	 3.227341	 -1.183947
H	 -0.376352	 3.599955	 0.487640
H	 -1.392791	 2.205979	 0.686804
H	 -1.066050	 3.757589	 -1.925139
H	 -2.418113	 3.907547	 -0.821858
H	 -2.160706	 2.410900	 -1.685825

11 7 4 3 F
