%nprocshared=1
%mem=2GB
#HF/6-31G* nosymm scf=tight 

Mol

0 1
H	 -3.261111	 -0.295142	 1.469456
C	 -3.306842	 -0.277400	 0.373456
C	 -2.660244	 0.921717	 -0.272021
O	 -3.838538	 -1.161155	 -0.216482
C	 -1.154904	 0.726918	 -0.500623
H	 -3.180149	 1.133019	 -1.199253
H	 -2.814336	 1.767215	 0.397340
C	 -0.829445	 -0.352409	 -1.536205
H	 -0.730333	 1.673764	 -0.820791
H	 -0.674167	 0.484443	 0.445873
C	 0.673569	 -0.527646	 -1.762158
H	 -1.311203	 -0.098612	 -2.478194
H	 -1.258498	 -1.303200	 -1.225643
C	 0.994996	 -1.596525	 -2.810076
H	 1.098197	 0.427109	 -2.061934
H	 1.151214	 -0.793311	 -0.820000
C	 2.490726	 -1.865791	 -3.010974
H	 0.550545	 -1.312193	 -3.762605
H	 0.513340	 -2.527007	 -2.516948
C	 3.273598	 -0.693309	 -3.604285
H	 2.599270	 -2.724774	 -3.668480
H	 2.935694	 -2.153784	 -2.060719
H	 2.840749	 -0.373018	 -4.548385
H	 3.288241	 0.163751	 -2.939299
H	 4.304950	 -0.975409	 -3.793302

6 3 5 8 F
3 5 8 12 F
12 8 11 14 F
8 11 14 18 F
20 17 14 18 F
