%nprocshared=4
%mem=2GB
#HF/cc-pVTZ nosymm scf=tight opt=ModRedundant

Mol

0 1
H	 2.736284	 0.017052	 -0.438380
N	 1.761824	 0.225111	 -0.445411
C	 1.228435	 0.224756	 0.901934
C	 1.046903	 -0.699922	 -1.301592
H	 1.772109	 0.947341	 1.498291
H	 1.324292	 -0.749373	 1.385157
C	 -0.240822	 0.603931	 0.862152
H	 1.459035	 -0.647379	 -2.301961
H	 1.131291	 -1.732472	 -0.957589
C	 -0.422117	 -0.319535	 -1.338487
H	 -0.331442	 1.640399	 0.524345
H	 -0.656073	 0.546952	 1.861372
N	 -0.976577	 -0.298712	 -0.000000
H	 -0.968454	 -1.044237	 -1.930467
H	 -0.525226	 0.653314	 -1.827899
C	 -2.391156	 -0.021003	 -0.000000
H	 -2.853954	 -0.458728	 -0.875714
H	 -2.853954	 -0.458728	 0.875714
H	 -2.614037	 1.049773	 -0.000000

7 13 16 19 F
