%nprocshared=1
%mem=2GB
#HF/6-31G* nosymm scf=tight 

Mol

0 1
H	 3.041906	 -0.078346	 0.305805
O	 2.346107	 0.485021	 -0.001068
C	 1.135793	 0.118896	 0.612333
C	 0.031547	 1.023609	 0.088541
H	 1.207718	 0.229882	 1.692794
H	 0.905438	 -0.924555	 0.409237
C	 -1.134819	 0.293262	 -0.585751
H	 0.474374	 1.714721	 -0.623187
H	 -0.338529	 1.620940	 0.920081
C	 -1.917817	 -0.639439	 0.339494
H	 -0.758119	 -0.268455	 -1.433105
H	 -1.813832	 1.041889	 -0.986690
H	 -2.777680	 -1.057197	 -0.174994
H	 -1.310268	 -1.471279	 0.680599
H	 -2.283753	 -0.111424	 1.216626

8 4 7 11 F
1 2 3 4 F
