%nprocshared=4
%mem=2GB
#HF/cc-pVTZ nosymm scf=tight opt=ModRedundant

Mol

0 1
O	 1.845375	 1.876032	 2.030342
C	 1.758564	 0.691172	 2.029006
C	 0.470245	 0.002045	 1.624798
C	 2.925623	 -0.188741	 2.409131
C	 0.376695	 -0.140025	 0.100361
H	 -0.352037	 0.607609	 1.984318
H	 0.403905	 -0.975211	 2.091098
C	 1.630207	 -0.772146	 -0.501001
H	 -0.497277	 -0.735268	 -0.132207
H	 0.219056	 0.837102	 -0.349829
C	 2.907848	 -0.545876	 0.309149
H	 1.772784	 -0.391628	 -1.509394
H	 1.468529	 -1.842059	 -0.599744
C	 3.373802	 0.906639	 0.372125
H	 3.699140	 -1.146831	 -0.127906
H	 2.764321	 -0.923458	 1.318191
H	 3.519798	 1.311927	 -0.623875
H	 4.316899	 0.983758	 0.900700
H	 2.661122	 1.540651	 0.885346
H	 2.701110	 -0.695722	 3.342170
H	 3.817403	 0.407113	 2.528530
H	 3.087617	 -0.955020	 1.659355

3 5 8 12 F
