%nprocshared=4
%mem=2GB
#HF/cc-pVTZ nosymm scf=tight opt=ModRedundant

Mol

0 1
O	 0.977740	 4.311720	 0.812090
C	 -0.058449	 4.703317	 1.239964
C	 -1.315007	 3.856837	 1.220869
C	 -0.192197	 6.085773	 1.837584
C	 -1.135113	 2.474778	 0.609002
H	 -1.674388	 3.781301	 2.244689
H	 -2.079522	 4.417722	 0.688018
C	 -2.425351	 1.659676	 0.611410
H	 -0.362437	 1.943189	 1.152600
H	 -0.767789	 2.580215	 -0.405440
C	 -2.258482	 0.271340	 0.000669
H	 -2.789190	 1.560086	 1.631693
H	 -3.196249	 2.199806	 0.066215
C	 -3.544441	 -0.550271	 -0.000253
H	 -1.488262	 -0.269436	 0.545129
H	 -1.895567	 0.369860	 -1.019485
C	 -4.804551	 0.308747	 0.000556
H	 -3.553737	 -1.201524	 -0.870151
H	 -3.553831	 -1.203282	 0.868313
H	 -4.842050	 0.949078	 -0.874436
H	 -5.698404	 -0.304480	 -0.000254
H	 -4.842277	 0.947103	 0.876982
H	 -0.529258	 6.017705	 2.866080
H	 0.758616	 6.594605	 1.799695
H	 -0.934625	 6.658365	 1.292625

15 11 14 18 F
