%nprocshared=4
%mem=2GB
#HF/cc-pVTZ nosymm scf=tight opt=ModRedundant

Mol

0 1
H	 0.529179	 -4.206893	 -3.553998
O	 1.458791	 -4.098553	 -3.630902
C	 1.794322	 -2.736678	 -3.586336
C	 1.653654	 -2.122409	 -2.201572
H	 2.825886	 -2.676008	 -3.905986
H	 1.200686	 -2.175874	 -4.305743
C	 0.219264	 -2.072967	 -1.680104
H	 2.275131	 -2.683461	 -1.510091
H	 2.056931	 -1.113352	 -2.241169
C	 0.113298	 -1.420414	 -0.302504
H	 -0.180605	 -3.080448	 -1.634388
H	 -0.401237	 -1.521583	 -2.384548
C	 -1.311023	 -1.277304	 0.237018
H	 0.710743	 -1.986925	 0.407674
H	 0.561864	 -0.432154	 -0.353479
C	 -2.041121	 -0.006551	 -0.194127
H	 -1.888548	 -2.136293	 -0.093331
H	 -1.289731	 -1.328757	 1.323321
C	 -3.489218	 0.042606	 0.286507
H	 -2.022185	 0.066287	 -1.279394
H	 -1.518764	 0.869305	 0.178730
C	 -4.219984	 1.311773	 -0.139038
H	 -4.022855	 -0.824300	 -0.093339
H	 -3.510372	 -0.038577	 1.370031
H	 -4.244251	 1.405725	 -1.219696
H	 -5.244345	 1.313233	 0.215630
H	 -3.732090	 2.196311	 0.257073

14 10 13 16 F
