%nprocshared=4
%mem=2GB
#HF/cc-pVTZ nosymm scf=tight 
prop=(read,field)

Mol

0 1
H	 1.651458	 -0.822464	 0.000000
O	 0.730129	 -1.034363	 0.000000
C	 0.037441	 0.100062	 -0.000000
C	 -1.441828	 -0.144561	 0.000000
O	 0.559468	 1.160384	 0.000000
H	 -1.712380	 -0.722837	 -0.873995
H	 -1.963670	 0.797992	 0.000000
H	 -1.712380	 -0.722837	 0.873995

@grid.dat /N
