%nprocshared=4
%mem=2GB
#HF/cc-pVTZ nosymm scf=tight opt=ModRedundant

Mol

0 1
O	 -1.278239	 1.034789	 -0.784693
C	 -1.204115	 0.062668	 -0.112312
C	 -2.386398	 -0.667698	 0.460323
O	 -0.068058	 -0.518372	 0.226882
H	 -2.382952	 -1.693172	 0.114333
H	 -3.296656	 -0.175702	 0.158400
H	 -2.312537	 -0.685191	 1.540100
C	 1.169086	 0.037484	 -0.230612
C	 0.821623	 0.946591	 -1.392467
C	 2.124766	 -1.077816	 -0.614526
H	 1.592349	 0.614180	 0.577694
H	 0.135569	 1.722964	 -1.078898
H	 1.718747	 1.416987	 -1.776666
H	 0.358641	 0.384596	 -2.194804
H	 3.057692	 -0.658478	 -0.972723
H	 2.342375	 -1.707181	 0.237057
H	 1.699395	 -1.687864	 -1.403312

11 8 4 2 F
