%nprocshared=4
%mem=2GB
#HF/cc-pVTZ nosymm scf=tight opt=ModRedundant

Mol

0 1
O	 -2.440701	 -0.934798	 -0.415053
C	 -1.922978	 0.063265	 -0.045005
C	 -2.632749	 1.372204	 0.158357
O	 -0.637375	 0.157174	 0.243149
H	 -2.187724	 2.129143	 -0.474664
H	 -3.677681	 1.257276	 -0.079438
H	 -2.516788	 1.693160	 1.185542
C	 0.162530	 -1.009518	 0.097799
C	 1.587210	 -0.664190	 0.477086
H	 0.096803	 -1.356267	 -0.924704
H	 -0.233803	 -1.785900	 0.736810
C	 2.051068	 0.705326	 -0.011817
H	 2.228704	 -1.435612	 0.059799
H	 1.688261	 -0.725118	 1.556398
C	 3.498276	 1.004894	 0.364300
H	 1.941230	 0.753986	 -1.091940
H	 1.403850	 1.471824	 0.398590
H	 3.802547	 1.979886	 0.002092
H	 4.175016	 0.269378	 -0.058110
H	 3.632315	 0.995918	 1.440855

12 9 8 10 F
