%nprocshared=1
%mem=2GB
#HF/6-31G* nosymm scf=tight 

Mol

0 1
H	 2.956136	 -0.177377	 5.438607
C	 2.535546	 -0.965985	 4.822389
C	 1.363655	 -0.449759	 3.988508
H	 3.328602	 -1.346664	 4.185611
H	 2.224995	 -1.771489	 5.482329
C	 0.742200	 -1.539399	 3.111986
H	 1.702807	 0.368824	 3.362009
H	 0.601661	 -0.043714	 4.651972
C	 -0.445261	 -1.056564	 2.278876
H	 1.496506	 -1.945956	 2.447623
H	 0.405118	 -2.356230	 3.746182
C	 -0.071031	 -0.126261	 1.134441
H	 -0.951422	 -1.910464	 1.831186
H	 -1.188610	 -0.570522	 2.906867
C	 -1.181045	 0.701995	 0.511084
O	 1.048458	 -0.058196	 0.723934
C	 -2.285934	 -0.139295	 -0.145128
H	 -0.718275	 1.350507	 -0.223076
H	 -1.618572	 1.331434	 1.283782
C	 -3.651768	 0.085446	 0.506485
H	 -2.346596	 0.110469	 -1.202272
H	 -2.034737	 -1.195320	 -0.088721
C	 -4.759797	 -0.746382	 -0.137905
H	 -3.908762	 1.140117	 0.445781
H	 -3.588286	 -0.154158	 1.565709
H	 -4.868882	 -0.505166	 -1.191300
H	 -4.548009	 -1.809175	 -0.062213
H	 -5.715422	 -0.564821	 0.343442

10 6 3 2 F
16 12 15 17 F
