%nprocshared=4
%mem=2GB
#HF/6-31G* nosymm scf=tight opt=ModRedundant

Mol

0 1
O	 2.927261	 0.566575	 -1.272901
C	 2.527381	 -0.175757	 -0.434988
C	 1.245376	 -0.013843	 0.345420
O	 3.176730	 -1.273685	 -0.068205
C	 0.455112	 1.231400	 -0.050772
H	 0.669960	 -0.922795	 0.204368
H	 1.509678	 0.009567	 1.399598
C	 -0.998893	 1.219485	 0.433193
H	 0.482531	 1.345121	 -1.130325
H	 0.957290	 2.103070	 0.354729
C	 -1.883438	 0.145884	 -0.207175
H	 -1.431207	 2.195402	 0.224832
H	 -1.019646	 1.105716	 1.516076
C	 -3.347647	 0.245583	 0.225435
H	 -1.822183	 0.231698	 -1.291012
H	 -1.510341	 -0.844814	 0.042401
C	 -4.239992	 -0.825570	 -0.404234
H	 -3.732888	 1.230466	 -0.033079
H	 -3.408585	 0.170602	 1.310038
C	 -5.701275	 -0.716658	 0.029921
H	 -4.179496	 -0.752714	 -1.488058
H	 -3.859041	 -1.810759	 -0.143352
H	 -6.308102	 -1.488908	 -0.432678
H	 -6.122175	 0.245478	 -0.248167
H	 -5.799072	 -0.820114	 1.106957
C	 4.401929	 -1.544913	 -0.724108
H	 4.245830	 -1.665087	 -1.786509
H	 4.769958	 -2.463380	 -0.294015
H	 5.107870	 -0.744072	 -0.557263

6 3 5 9 F
