%nprocshared=4
%mem=2GB
#HF/cc-pVTZ nosymm scf=tight opt=ModRedundant

Mol

0 1
H	 2.718619	 -0.072928	 -0.609727
N	 1.743876	 0.133688	 -0.619506
C	 1.255860	 0.364451	 0.725273
C	 1.003374	 -0.921649	 -1.281142
H	 1.817101	 1.176522	 1.171258
H	 1.370625	 -0.513364	 1.363935
C	 -0.214989	 0.735521	 0.670635
H	 1.381658	 -1.041517	 -2.289054
H	 1.102187	 -1.880721	 -0.769247
C	 -0.467144	 -0.548895	 -1.333152
H	 -0.319834	 1.699526	 0.164382
H	 -0.596415	 0.850831	 1.678274
N	 -0.976577	 -0.298712	 -0.000000
H	 -1.030895	 -1.362298	 -1.774376
H	 -0.589361	 0.326625	 -1.977449
C	 -2.391156	 -0.021003	 -0.000000
H	 -2.853954	 -0.458728	 -0.875714
H	 -2.853954	 -0.458728	 0.875714
H	 -2.614037	 1.049773	 -0.000000

7 13 16 19 F
