%nprocshared=1
%mem=2GB
#HF/6-31G* nosymm scf=tight 
prop=(read,field)

Mol

0 1
H	 2.845767	 -0.323175	 0.022293
C	 1.899953	 0.072000	 -0.330087
C	 0.778276	 -0.508053	 0.517951
H	 1.782282	 -0.206844	 -1.370794
H	 1.922060	 1.149901	 -0.254269
N	 -0.541115	 0.005173	 0.058421
H	 0.716531	 -1.581264	 0.454696
H	 0.859524	 -0.198614	 1.550069
O	 -1.347891	 -0.791731	 -0.306722
O	 -0.700589	 1.187593	 0.089226

@grid.dat /N
