%nprocshared=4
%mem=2GB
#HF/cc-pVTZ nosymm scf=tight opt=ModRedundant

Mol

0 1
H	 3.556788	 -9.796895	 -4.347815
O	 4.285999	 -9.263890	 -4.090934
C	 4.819053	 -8.599969	 -5.206432
C	 3.938477	 -7.469332	 -5.717247
H	 5.771241	 -8.200008	 -4.884953
H	 5.021095	 -9.307477	 -6.008344
C	 3.427878	 -6.530294	 -4.626676
H	 4.497739	 -6.902583	 -6.455609
H	 3.091625	 -7.913292	 -6.235068
C	 2.431673	 -7.204804	 -3.684632
H	 2.961262	 -5.665936	 -5.087283
H	 4.271431	 -6.158981	 -4.047166
C	 1.943063	 -6.331378	 -2.527635
H	 1.575857	 -7.551320	 -4.258856
H	 2.897132	 -8.094697	 -3.270016
C	 3.009841	 -5.968591	 -1.496077
H	 1.536861	 -5.412766	 -2.941978
H	 1.114395	 -6.828514	 -2.028316
C	 3.483501	 -7.168232	 -0.679428
H	 2.613548	 -5.211830	 -0.822480
H	 3.867480	 -5.519301	 -1.987603
C	 4.787405	 -7.768073	 -1.195101
H	 3.610487	 -6.868801	 0.357294
H	 2.710250	 -7.931867	 -0.682378
H	 5.589371	 -7.037552	 -1.174452
H	 5.096164	 -8.614511	 -0.592342
H	 4.682460	 -8.112344	 -2.218729

20 16 19 22 F
