%nprocshared=4
%mem=2GB
#HF/cc-pVTZ nosymm scf=tight opt=ModRedundant

Mol

0 1
H	 -2.747400	 0.464390	 0.428049
C	 -2.473692	 0.204902	 -0.585840
C	 -1.209985	 -0.640822	 -0.610526
H	 -2.333633	 1.128175	 -1.131885
H	 -3.297387	 -0.337075	 -1.034940
C	 0.000000	 0.039916	 0.000014
H	 -0.951895	 -0.920106	 -1.628508
H	 -1.362051	 -1.578158	 -0.082161
C	 1.286532	 -0.763243	 0.000268
O	 -0.056584	 1.137017	 0.451175
C	 2.547023	 0.087626	 -0.000114
H	 1.264245	 -1.421103	 -0.864380
H	 1.264290	 -1.420353	 0.865489
H	 2.584452	 0.725630	 -0.872909
H	 3.427035	 -0.544422	 0.000125
H	 2.584484	 0.726356	 0.872143

3 6 9 12 F
