%nprocshared=4
%mem=2GB
#HF/cc-pVTZ nosymm scf=tight opt=ModRedundant

Mol

0 1
H	 2.614283	 2.028610	 0.296620
O	 3.358864	 1.662087	 -0.142800
C	 3.565468	 0.338079	 0.273842
C	 2.533667	 -0.637565	 -0.272227
H	 4.548038	 0.064914	 -0.086598
H	 3.593945	 0.282242	 1.360360
C	 1.140717	 -0.039509	 -0.456265
H	 2.893291	 -1.025766	 -1.220451
H	 2.475644	 -1.480358	 0.412414
C	 0.124609	 -1.056318	 -0.974396
H	 1.197757	 0.797169	 -1.144538
H	 0.792006	 0.360415	 0.494392
C	 -1.305756	 -0.530379	 -1.107443
H	 0.458415	 -1.435639	 -1.937161
H	 0.115516	 -1.908841	 -0.300905
C	 -1.504556	 0.538079	 -2.181043
H	 -1.958222	 -1.369962	 -1.330862
H	 -1.635167	 -0.140569	 -0.146875
C	 -2.963264	 0.958061	 -2.342902
H	 -1.133060	 0.163031	 -3.132252
H	 -0.911174	 1.417028	 -1.947915
C	 -3.164822	 2.027429	 -3.411414
H	 -3.562435	 0.085807	 -2.589366
H	 -3.338451	 1.325121	 -1.391291
H	 -2.828657	 1.678779	 -4.382329
H	 -4.210008	 2.300265	 -3.502256
H	 -2.607820	 2.927956	 -3.174450

8 4 3 2 F
