%nprocshared=4
%mem=2GB
#HF/cc-pVTZ nosymm scf=tight opt=ModRedundant

Mol

0 1
H	 2.587682	 -0.739888	 1.085652
N	 1.610839	 -0.543969	 1.103063
C	 0.845149	 -1.727608	 0.767564
C	 1.294714	 0.562363	 0.222190
H	 1.091693	 -2.518526	 1.465430
H	 1.061275	 -2.089114	 -0.239521
C	 -0.636691	 -1.412524	 0.862152
H	 1.867023	 1.430811	 0.524866
H	 1.539244	 0.345538	 -0.819352
C	 -0.187715	 0.874447	 0.317493
H	 -0.889226	 -1.200812	 1.905222
H	 -1.210781	 -2.278592	 0.554798
N	 -0.976577	 -0.298712	 -0.000000
H	 -0.437167	 1.662002	 -0.383684
H	 -0.409319	 1.243711	 1.323041
C	 -2.391156	 -0.021003	 -0.000000
H	 -2.853954	 -0.458728	 -0.875714
H	 -2.853954	 -0.458728	 0.875714
H	 -2.614037	 1.049773	 -0.000000

7 13 16 19 F
