%nprocshared=1
%mem=2GB
#HF/6-31G* nosymm scf=tight opt=ModRedundant

Mol

0 1
H	 0.413399	 -0.996766	 -4.559018
O	 1.340611	 -1.180529	 -4.598773
C	 2.010059	 -0.457414	 -3.597275
C	 1.770215	 -1.008236	 -2.195919
H	 3.062743	 -0.523131	 -3.840607
H	 1.734021	 0.595621	 -3.638495
C	 0.314104	 -0.918490	 -1.732719
H	 2.097612	 -2.044385	 -2.171970
H	 2.404816	 -0.458873	 -1.502487
C	 0.115918	 -1.429151	 -0.302766
H	 -0.312552	 -1.489599	 -2.412058
H	 -0.021522	 0.116978	 -1.791904
C	 -1.309753	 -1.282496	 0.241564
H	 0.414994	 -2.474498	 -0.251275
H	 0.792850	 -0.887942	 0.354924
C	 -2.037799	 -0.007733	 -0.193645
H	 -1.890610	 -2.142323	 -0.085726
H	 -1.285946	 -1.330893	 1.329189
C	 -3.489788	 0.042957	 0.286558
H	 -2.017067	 0.064384	 -1.280144
H	 -1.513726	 0.868678	 0.179924
C	 -4.216917	 1.317354	 -0.141063
H	 -4.025645	 -0.823308	 -0.095450
H	 -3.513059	 -0.038752	 1.371301
H	 -4.239342	 1.411634	 -1.223113
H	 -5.243387	 1.322503	 0.212445
H	 -3.726170	 2.201406	 0.256408

14 10 13 16 F
