%nprocshared=4
%mem=2GB
#HF/cc-pVTZ nosymm scf=tight opt=ModRedundant

Mol

0 1
H	 -2.498963	 -0.741158	 -0.729149
O	 -2.346257	 -0.289210	 0.080372
C	 -1.183935	 0.486039	 -0.009831
C	 0.062853	 -0.375310	 0.027457
H	 -1.178881	 1.094526	 -0.908634
H	 -1.184406	 1.155156	 0.838676
O	 0.769887	 -0.070599	 1.184481
H	 0.674117	 -0.183712	 -0.856027
H	 -0.220182	 -1.425568	 0.006840
C	 1.930412	 -0.813022	 1.366718
H	 2.634823	 -0.655584	 0.552904
H	 2.388171	 -0.490467	 2.290352
H	 1.714987	 -1.876750	 1.434507

8 4 3 5 F
