%nprocshared=4
%mem=2GB
#HF/cc-pVTZ nosymm scf=tight opt=ModRedundant

Mol

0 1
H	 2.614283	 2.028610	 0.296620
O	 3.358864	 1.662087	 -0.142800
C	 3.565468	 0.338079	 0.273842
C	 2.533667	 -0.637565	 -0.272227
H	 4.548038	 0.064914	 -0.086598
H	 3.593945	 0.282242	 1.360360
C	 1.213186	 0.010439	 -0.682433
H	 2.965664	 -1.157316	 -1.122165
H	 2.344316	 -1.386565	 0.492982
C	 0.191103	 -1.003488	 -1.194425
H	 1.401531	 0.752992	 -1.450641
H	 0.792558	 0.541494	 0.169821
C	 -1.176947	 -0.418689	 -1.550380
H	 0.599672	 -1.514764	 -2.062697
H	 0.050810	 -1.766210	 -0.433477
C	 -1.184882	 0.521101	 -2.754736
H	 -1.857883	 -1.241500	 -1.749973
H	 -1.580198	 0.102470	 -0.684968
C	 -2.585245	 0.998977	 -3.130274
H	 -0.739881	 0.013362	 -3.607756
H	 -0.560878	 1.387396	 -2.556859
C	 -2.596399	 1.940439	 -4.330031
H	 -3.213094	 0.138023	 -3.342741
H	 -3.034500	 1.499054	 -2.276368
H	 -2.182499	 1.458442	 -5.209578
H	 -3.604423	 2.258057	 -4.571101
H	 -2.007402	 2.830611	 -4.135020

8 4 3 2 F
