%nprocshared=4
%mem=2GB
#HF/cc-pVTZ nosymm scf=tight opt=ModRedundant

Mol

0 1
O	 -1.278239	 1.034789	 -0.784693
C	 -1.204115	 0.062668	 -0.112312
C	 -2.386398	 -0.667698	 0.460323
O	 -0.068058	 -0.518372	 0.226882
H	 -2.382952	 -1.693172	 0.114333
H	 -3.296656	 -0.175702	 0.158400
H	 -2.312537	 -0.685191	 1.540100
C	 1.054930	 -0.434433	 -0.656665
C	 1.907577	 -1.655631	 -0.375985
C	 1.794493	 0.871445	 -0.427895
H	 0.682970	 -0.466769	 -1.669427
H	 1.342998	 -2.563563	 -0.545273
H	 2.771772	 -1.662858	 -1.029304
H	 2.253887	 -1.654578	 0.650662
H	 2.652222	 0.931167	 -1.087618
H	 1.152499	 1.717083	 -0.631339
H	 2.145898	 0.934725	 0.595723

8 4 2 1 F
