%nprocshared=4
%mem=2GB
#HF/cc-pVTZ nosymm scf=tight opt=ModRedundant

Mol

0 1
H	 -0.366580	 2.045936	 -0.305741
C	 0.351829	 1.335402	 0.083179
N	 -0.000018	 0.000080	 -0.334836
H	 1.327156	 1.599860	 -0.305475
H	 0.380566	 1.445403	 1.171445
C	 -1.307779	 -0.386282	 0.137250
C	 0.131183	 -0.171296	 -1.761601
H	 -1.509714	 -1.414765	 -0.133927
H	 -1.348333	 -0.311323	 1.216567
H	 -2.108201	 0.235369	 -0.274993
H	 1.142588	 0.060658	 -2.070534
H	 -0.072526	 -1.199962	 -2.030810
H	 -0.550625	 0.468287	 -2.330092

6 3 2 1 F
