%nprocshared=4
%mem=2GB
#HF/cc-pVTZ nosymm scf=tight opt=ModRedundant

Mol

0 1
H	 3.752474	 -0.852435	 0.325341
O	 2.842651	 -1.105787	 0.366951
C	 2.095451	 -0.017365	 0.204279
C	 0.626018	 -0.337582	 0.258241
O	 2.571354	 1.052398	 0.040072
C	 -0.267326	 0.883135	 0.076490
H	 0.443271	 -1.093038	 -0.496575
H	 0.441163	 -0.820609	 1.212677
C	 -1.726822	 0.642622	 0.463839
H	 -0.210803	 1.217591	 -0.953497
H	 0.129920	 1.693110	 0.675679
C	 -2.480891	 -0.340606	 -0.429852
H	 -2.243098	 1.597649	 0.438609
H	 -1.776542	 0.301208	 1.495542
C	 -3.955933	 -0.460128	 -0.060472
H	 -2.393755	 -0.020485	 -1.464726
H	 -2.024244	 -1.323637	 -0.374360
H	 -4.467673	 -1.160944	 -0.709827
H	 -4.458917	 0.497287	 -0.144505
H	 -4.076458	 -0.806900	 0.960497

7 4 6 10 F
