%nprocshared=4
%mem=2GB
#HF/cc-pVTZ nosymm scf=tight opt=ModRedundant

Mol

0 1
O	 -0.988175	 -1.402891	 0.050086
C	 -0.675048	 -0.248293	 -0.009686
C	 -1.742492	 0.826599	 -0.011538
N	 0.622280	 0.144970	 -0.099307
H	 -1.692153	 1.431066	 -0.908439
H	 -2.698310	 0.331559	 0.031353
H	 -1.642148	 1.483784	 0.843455
C	 1.002329	 1.430745	 0.446854
C	 1.588945	 -0.459450	 -0.984739
H	 1.977266	 1.351630	 0.912109
H	 0.280627	 1.738957	 1.181246
H	 1.055483	 2.189581	 -0.329660
H	 2.568899	 -0.411631	 -0.527531
H	 1.366453	 -1.496409	 -1.169428
H	 1.642192	 0.056549	 -1.940748

8 4 2 3 F
