%nprocshared=4
%mem=2GB
#HF/cc-pVTZ nosymm scf=tight opt=ModRedundant

Mol

0 1
O	 1.847685	 1.294399	 -0.000190
C	 1.704209	 0.119472	 -0.000093
C	 0.380337	 -0.600947	 -0.000234
O	 2.715427	 -0.733672	 0.000025
C	 -0.824290	 0.329213	 -0.000115
H	 0.371455	 -1.255476	 -0.865660
H	 0.371410	 -1.255787	 0.864952
C	 -0.492111	 1.709352	 -0.559482
H	 -1.203051	 0.423182	 1.011311
H	 -1.622899	 -0.120378	 -0.579237
C	 -1.688470	 2.656519	 -0.567909
H	 0.311125	 2.153656	 0.024176
H	 -0.109830	 1.607739	 -1.572780
C	 -1.356418	 4.036060	 -1.126497
H	 -2.070512	 2.759502	 0.443820
H	 -2.490768	 2.214495	 -1.151939
H	 -0.580182	 4.518887	 -0.542057
H	 -2.226293	 4.682573	 -1.117996
H	 -1.004137	 3.969617	 -2.150566
C	 4.020999	 -0.192556	 0.000019
H	 4.182809	 0.412891	 -0.879449
H	 4.692590	 -1.035653	 0.000152
H	 4.182726	 0.413087	 0.879368

9 5 3 6 F
