%nprocshared=4
%mem=2GB
#HF/cc-pVTZ nosymm scf=tight opt=ModRedundant

Mol

0 1
O	 1.371337	 1.045617	 0.700980
C	 1.121787	 0.124983	 0.000110
C	 -0.170946	 -0.649810	 -0.000210
O	 1.969101	 -0.353489	 -0.896273
C	 -1.413040	 0.229465	 0.001081
H	 -0.152920	 -1.303342	 -0.866265
H	 -0.152362	 -1.305096	 0.864496
C	 -1.401024	 1.254069	 -1.129561
H	 -1.491470	 0.737110	 0.955904
H	 -2.294862	 -0.396177	 -0.079581
C	 -2.640394	 2.142217	 -1.136269
H	 -0.513533	 1.875767	 -1.045343
H	 -1.322128	 0.739535	 -2.083640
H	 -2.728547	 2.696714	 -0.208181
H	 -2.604673	 2.859053	 -1.948394
H	 -3.542989	 1.552292	 -1.254135
C	 3.226978	 0.281687	 -1.004047
H	 3.107866	 1.319775	 -1.276836
H	 3.762124	 -0.246898	 -1.776112
H	 3.765395	 0.222432	 -0.069799

1 2 4 17 F
