%nprocshared=4
%mem=2GB
#HF/cc-pVTZ nosymm scf=tight opt=ModRedundant

Mol

0 1
O	 -1.458153	 -1.573277	 -1.721820
C	 -0.617648	 -1.375378	 -0.911735
C	 0.664054	 -2.158788	 -0.779953
O	 -0.695554	 -0.422406	 0.000602
C	 0.802592	 -3.269025	 -1.809105
H	 0.698219	 -2.550578	 0.230633
H	 1.481972	 -1.450321	 -0.850806
H	 -0.006301	 -3.982225	 -1.723925
H	 1.738779	 -3.794608	 -1.665355
H	 0.784571	 -2.871979	 -2.815214
C	 -1.852370	 0.402254	 0.000718
C	 -3.063338	 -0.501097	 -0.000437
H	 -1.831732	 1.039442	 -0.872158
H	 -1.832493	 1.038301	 0.874430
H	 -3.071944	 -1.133732	 -0.879113
H	 -3.966302	 0.097976	 -0.000483
H	 -3.072764	 -1.134834	 0.877435

2 4 11 13 F
