%nprocshared=1
%mem=2GB
#HF/6-31G* nosymm scf=tight 

Mol

0 1
O	 3.828900	 -0.860527	 2.457488
C	 3.023177	 -0.921300	 1.585607
C	 1.525332	 -0.869442	 1.766054
O	 3.347903	 -1.046386	 0.304773
C	 1.101931	 -0.713075	 3.224957
H	 1.158057	 -0.057880	 1.146645
H	 1.116374	 -1.779972	 1.335491
C	 -0.415065	 -0.764112	 3.436177
H	 1.496378	 0.220513	 3.614756
H	 1.568227	 -1.500912	 3.806595
C	 -1.191807	 0.404148	 2.822214
H	 -0.605580	 -0.783480	 4.506716
H	 -0.804382	 -1.702461	 3.043821
C	 -2.684985	 0.365489	 3.153762
H	 -0.768525	 1.341906	 3.178950
H	 -1.072211	 0.406669	 1.741167
C	 -3.472133	 1.525302	 2.541094
H	 -2.813870	 0.376192	 4.234738
H	 -3.106610	 -0.576625	 2.806841
C	 -4.961713	 1.481428	 2.880104
H	 -3.051492	 2.467528	 2.885932
H	 -3.348071	 1.513685	 1.460235
H	 -5.492307	 2.315793	 2.431871
H	 -5.120891	 1.526791	 3.953789
H	 -5.419517	 0.565301	 2.517613
C	 4.728119	 -1.109107	 -0.004993
H	 4.882018	 -1.033965	 -1.071845
H	 5.068212	 -2.067527	 0.355250
H	 5.265056	 -0.311663	 0.488280

21 17 14 11 F
17 14 11 15 F
15 11 8 5 F
6 3 5 9 F
11 8 5 9 F
1 2 4 26 F
6 3 2 1 F
