%nprocshared=4
%mem=2GB
#HF/cc-pVTZ nosymm scf=tight opt=ModRedundant

Mol

0 1
O	 -2.687189	 0.557746	 -0.168081
C	 -2.112379	 -0.304678	 0.412651
C	 -0.884917	 -0.965033	 -0.183434
C	 -2.558777	 -0.774481	 1.776756
C	 0.376695	 -0.140025	 0.100361
H	 -1.038546	 -1.037655	 -1.252656
H	 -0.766936	 -1.967768	 0.213389
C	 1.630207	 -0.772146	 -0.501001
H	 0.226993	 0.856466	 -0.295648
H	 0.511123	 -0.033480	 1.174082
C	 2.907848	 -0.545876	 0.309149
H	 1.772784	 -0.391628	 -1.509394
H	 1.468529	 -1.842059	 -0.599744
C	 3.373802	 0.906639	 0.372125
H	 3.699140	 -1.146831	 -0.127906
H	 2.764321	 -0.923458	 1.318191
H	 3.519798	 1.311927	 -0.623875
H	 4.316899	 0.983758	 0.900700
H	 2.661122	 1.540651	 0.885346
H	 -2.930160	 -1.791422	 1.699931
H	 -3.340497	 -0.133089	 2.153717
H	 -1.724045	 -0.789920	 2.468547

3 5 8 12 F
