%nprocshared=4
%mem=2GB
#HF/6-31G* nosymm scf=tight opt=ModRedundant

Mol

0 1
H	 3.654866	 -0.813532	 1.079875
O	 2.783023	 -1.088900	 0.813757
C	 2.029793	 0.001735	 0.673842
C	 0.624473	 -0.343591	 0.253101
O	 2.456765	 1.093089	 0.867895
C	 -0.265902	 0.883932	 0.072916
H	 0.701083	 -0.929458	 -0.656989
H	 0.219369	 -1.015488	 1.005562
C	 -1.728698	 0.646073	 0.462102
H	 -0.209144	 1.219470	 -0.958188
H	 0.135059	 1.692851	 0.673903
C	 -2.482460	 -0.343073	 -0.431425
H	 -2.245265	 1.602650	 0.432430
H	 -1.779332	 0.308348	 1.496285
C	 -3.960546	 -0.461025	 -0.060175
H	 -2.395034	 -0.026811	 -1.468912
H	 -2.024850	 -1.327147	 -0.371646
H	 -4.472726	 -1.168004	 -0.705284
H	 -4.465146	 0.496508	 -0.151489
H	 -4.081218	 -0.800940	 0.964585

7 4 6 10 F
