%nprocshared=1
%mem=2GB
#HF/6-31G* nosymm scf=tight 

Mol

0 1
H	 1.136379	 0.211822	 1.465562
C	 1.135357	 0.094285	 0.374742
C	 0.065331	 0.871482	 -0.349150
O	 1.941633	 -0.601957	 -0.151457
C	 -0.601545	 1.924607	 0.547335
H	 -0.660331	 0.169103	 -0.742838
H	 0.542884	 1.368538	 -1.192382
C	 -1.418931	 1.317188	 1.688100
H	 -1.245231	 2.543776	 -0.069356
H	 0.159342	 2.588115	 0.952856
H	 -2.207352	 0.677781	 1.303291
H	 -1.882114	 2.094133	 2.287379
H	 -0.802591	 0.714785	 2.348876

6 3 5 9 F
