%nprocshared=4
%mem=2GB
#HF/6-31G* nosymm scf=tight opt=ModRedundant

Mol

0 1
H	 -1.340278	 -0.489544	 0.668612
N	 -0.626943	 -0.667432	 -0.000092
C	 -0.814170	 -1.762598	 -0.924361
C	 0.469286	 0.129090	 0.000148
H	 -0.912924	 -2.704679	 -0.395460
H	 0.048920	 -1.811469	 -1.568113
H	 -1.699308	 -1.610779	 -1.533059
C	 1.788933	 -0.616240	 -0.000037
O	 0.411098	 1.327768	 -0.000049
H	 1.872803	 -1.245775	 -0.880381
H	 2.595421	 0.101576	 0.003713
H	 1.870096	 -1.252171	 0.875943

3 2 4 9 F
