%nprocshared=4
%mem=2GB
#HF/6-31G* nosymm scf=tight opt=ModRedundant

Mol

0 1
H	 -1.454736	 -0.331950	 0.435647
N	 -0.626943	 -0.667432	 -0.000092
C	 -0.655931	 -1.980474	 -0.603247
C	 0.469286	 0.129090	 0.000148
H	 -0.886030	 -2.741852	 0.134564
H	 0.317187	 -2.180842	 -1.021126
H	 -1.395891	 -2.028404	 -1.395202
C	 1.788933	 -0.616240	 -0.000037
O	 0.411098	 1.327768	 -0.000049
H	 1.872803	 -1.245775	 -0.880381
H	 2.595421	 0.101576	 0.003713
H	 1.870096	 -1.252171	 0.875943

3 2 4 9 F
