%nprocshared=4
%mem=2GB
#HF/cc-pVTZ nosymm scf=tight opt=ModRedundant

Mol

0 1
H	 -3.436473	 1.252944	 -1.023892
O	 -3.458596	 0.315260	 -0.960865
C	 -3.176635	 -0.080824	 0.355601
C	 -1.763371	 0.265266	 0.799691
H	 -3.321825	 -1.153438	 0.379502
H	 -3.895468	 0.357385	 1.043382
C	 -0.673390	 -0.426948	 -0.013392
H	 -1.631049	 1.344913	 0.747560
H	 -1.664587	 -0.001624	 1.849167
C	 0.737842	 -0.043159	 0.423759
H	 -0.806103	 -0.190518	 -1.063345
H	 -0.797221	 -1.503753	 0.074146
C	 0.762639	 1.159019	 1.365673
H	 1.203121	 -0.899247	 0.902839
H	 1.340040	 0.179457	 -0.454681
C	 2.160270	 1.632653	 1.768348
H	 0.192873	 0.924001	 2.261766
H	 0.244382	 1.985285	 0.886806
C	 2.947155	 0.643819	 2.625181
H	 2.061726	 2.564773	 2.316268
H	 2.730893	 1.867228	 0.873482
H	 2.397931	 0.385855	 3.525116
H	 3.896500	 1.069595	 2.929648
H	 3.159519	 -0.275400	 2.092692

13 10 7 11 F
