%nprocshared=4
%mem=2GB
#HF/6-31G* nosymm scf=tight opt=ModRedundant

Mol

0 1
H	 -3.161837	 0.500524	 -0.000234
C	 -2.367097	 -0.232926	 -0.000000
O	 -1.158440	 0.455814	 -0.000122
H	 -2.468853	 -0.861886	 -0.882833
H	 -2.468942	 -0.861421	 0.883154
C	 -0.029776	 -0.365156	 0.000148
C	 1.212217	 0.508981	 0.000007
H	 -0.036772	 -1.013236	 -0.877259
H	 -0.036869	 -1.012778	 0.877897
C	 1.926315	 0.509975	 1.350911
H	 1.881965	 0.155328	 -0.777829
H	 0.922155	 1.519270	 -0.271802
H	 2.246970	 -0.489724	 1.630564
H	 2.807870	 1.141557	 1.322420
H	 1.280047	 0.883291	 2.140453

11 7 6 8 F
