%nprocshared=4
%mem=2GB
#HF/cc-pVTZ nosymm scf=tight opt=ModRedundant

Mol

0 1
O	 1.816773	 1.332945	 -0.963344
C	 0.781622	 1.719742	 -1.387478
C	 -0.518669	 0.958420	 -1.351787
O	 0.630629	 2.901797	 -1.962250
C	 -0.824290	 0.329213	 -0.000115
H	 -1.301960	 1.647247	 -1.650821
H	 -0.472151	 0.207303	 -2.133516
C	 -2.260410	 0.584392	 0.447615
H	 -0.133418	 0.717965	 0.739371
H	 -0.638987	 -0.737653	 -0.052556
C	 -2.497754	 2.018597	 0.911504
H	 -2.941176	 0.355984	 -0.369477
H	 -2.515690	 -0.098900	 1.254573
C	 -3.933176	 2.273824	 1.358533
H	 -2.244013	 2.701887	 0.105969
H	 -1.819463	 2.247292	 1.728682
H	 -4.633910	 2.086804	 0.551545
H	 -4.067164	 3.299935	 1.680833
H	 -4.205882	 1.628895	 2.187347
C	 1.774850	 3.725117	 -2.063383
H	 2.168391	 3.953019	 -1.083894
H	 1.449161	 4.628457	 -2.553025
H	 2.542901	 3.240436	 -2.647673

9 5 3 6 F
