%nprocshared=1
%mem=2GB
#HF/6-31G* nosymm scf=tight opt=ModRedundant

Mol

0 1
H	 -3.489639	 -0.094624	 2.426277
C	 -2.534335	 -0.010222	 1.939394
C	 -2.152239	 1.195686	 1.371118
C	 -1.689311	 -1.107303	 1.882122
H	 -2.808538	 2.045746	 1.416238
C	 -0.923756	 1.303437	 0.745256
H	 -1.987208	 -2.041282	 2.323197
C	 -0.459115	 -1.001771	 1.256141
H	 -0.611556	 2.228654	 0.300087
C	 -0.073237	 0.205447	 0.685627
H	 0.197963	 -1.848170	 1.209478
C	 1.239129	 0.373821	 0.000060
O	 1.970282	 -0.730723	 0.000018
O	 1.603172	 1.391947	 -0.499692
C	 3.377318	 -0.566646	 -0.000065
H	 3.695437	 -0.028981	 -0.881264
H	 3.789299	 -1.563704	 0.000236
H	 3.695516	 -0.028316	 0.880770

10 12 13 15 F
