%nprocshared=4
%mem=2GB
#HF/cc-pVTZ nosymm scf=tight opt=ModRedundant

Mol

0 1
H	 -3.436473	 1.252944	 -1.023892
O	 -3.458596	 0.315260	 -0.960865
C	 -3.176635	 -0.080824	 0.355601
C	 -1.763371	 0.265266	 0.799691
H	 -3.321825	 -1.153438	 0.379502
H	 -3.895468	 0.357385	 1.043382
C	 -0.673390	 -0.426948	 -0.013392
H	 -1.631049	 1.344913	 0.747560
H	 -1.664587	 -0.001624	 1.849167
C	 0.737842	 -0.043159	 0.423759
H	 -0.806103	 -0.190518	 -1.063345
H	 -0.797221	 -1.503753	 0.074146
C	 1.824000	 -0.743224	 -0.390623
H	 0.850588	 1.033777	 0.343840
H	 0.868587	 -0.286314	 1.476203
C	 3.255957	 -0.453067	 0.062319
H	 1.718250	 -0.470599	 -1.438164
H	 1.658105	 -1.815850	 -0.339904
C	 3.787982	 -1.395130	 1.139636
H	 3.296627	 0.564061	 0.439907
H	 3.917359	 -0.481866	 -0.799735
H	 3.142887	 -1.391777	 2.012515
H	 4.777941	 -1.091721	 1.460830
H	 3.860295	 -2.416574	 0.786044

20 16 13 17 F
