%nprocshared=4
%mem=2GB
#HF/cc-pVTZ nosymm scf=tight opt=ModRedundant

Mol

0 1
H	 5.269878	 0.195679	 1.068175
C	 4.673900	 -0.208485	 0.258034
C	 3.190199	 -0.204714	 0.610086
H	 4.865136	 0.391893	 -0.624684
H	 5.027838	 -1.214511	 0.056939
C	 2.319208	 -0.778154	 -0.505491
H	 2.876954	 0.809861	 0.827925
H	 3.035335	 -0.782733	 1.518235
C	 2.684815	 -2.205201	 -0.901415
H	 1.279539	 -0.751434	 -0.203493
H	 2.409318	 -0.146979	 -1.384856
C	 2.309738	 -3.263498	 0.122210
H	 2.169227	 -2.476707	 -1.819140
H	 3.744547	 -2.287515	 -1.124372
C	 2.974065	 -4.621098	 -0.000112
O	 1.511316	 -3.050026	 0.976743
C	 2.627529	 -5.363332	 -1.295243
H	 2.665185	 -5.203443	 0.857389
H	 4.050446	 -4.482871	 0.059001
C	 3.233860	 -6.763211	 -1.343921
H	 1.547277	 -5.436806	 -1.386091
H	 2.973632	 -4.797009	 -2.154016
C	 2.890439	 -7.515916	 -2.624789
H	 2.887910	 -7.332421	 -0.486372
H	 4.313490	 -6.689445	 -1.246294
H	 1.817565	 -7.632789	 -2.734160
H	 3.255943	 -6.988647	 -3.499691
H	 3.332428	 -8.505337	 -2.626996

10 6 3 2 F
