%nprocshared=4
%mem=2GB
#HF/cc-pVTZ nosymm scf=tight opt=ModRedundant

Mol

0 1
H	 3.721907	 -0.933076	 -0.066039
O	 2.824271	 -1.154299	 0.131461
C	 2.076458	 -0.067370	 -0.038225
C	 0.626018	 -0.337582	 0.258241
O	 2.538288	 0.965419	 -0.381593
C	 -0.267326	 0.883135	 0.076490
H	 0.325620	 -1.161483	 -0.378003
H	 0.574537	 -0.713685	 1.275261
C	 -1.726822	 0.642622	 0.463839
H	 -0.210803	 1.217591	 -0.953497
H	 0.129920	 1.693110	 0.675679
C	 -2.006266	 0.637493	 1.965813
H	 -2.030065	 -0.315841	 0.053173
H	 -2.356906	 1.388241	 -0.016257
C	 -3.454507	 0.289286	 2.294182
H	 -1.345701	 -0.077689	 2.448726
H	 -1.772522	 1.607082	 2.393850
H	 -3.625538	 0.290397	 3.364429
H	 -3.715146	 -0.694246	 1.918108
H	 -4.138982	 1.003941	 1.849302

12 9 6 10 F
