%nprocshared=4
%mem=2GB
#HF/cc-pVTZ nosymm scf=tight opt=ModRedundant

Mol

0 1
H	 -3.162190	 0.493205	 -0.000107
C	 -2.363908	 -0.234727	 0.000005
O	 -1.158738	 0.454634	 -0.000087
H	 -2.464314	 -0.863616	 -0.882153
H	 -2.464327	 -0.863359	 0.882345
C	 -0.028611	 -0.359694	 0.000037
C	 0.104884	 -1.028527	 -1.353194
H	 -0.110136	 -1.112241	 0.784680
H	 0.860092	 0.234157	 0.214954
C	 1.323603	 -1.940958	 -1.434084
H	 -0.799105	 -1.594382	 -1.549508
H	 0.163462	 -0.258690	 -2.114686
H	 1.273419	 -2.734107	 -0.695516
H	 1.394473	 -2.405186	 -2.410041
H	 2.242426	 -1.389446	 -1.264772

8 6 3 2 F
