%nprocshared=4
%mem=2GB
#HF/cc-pVTZ nosymm scf=tight opt=ModRedundant

Mol

0 1
H	 -2.644180	 -0.653737	 1.272255
C	 -2.092774	 -0.380414	 0.391915
O	 -0.808934	 -0.154049	 0.752536
F	 -2.163230	 -1.351640	 -0.507133
F	 -2.627232	 0.691260	 -0.169301
C	 0.085006	 0.250800	 -0.215074
C	 0.266448	 1.759624	 -0.067412
Cl	 -0.510841	 -0.134612	 -1.840485
H	 1.049272	 -0.214306	 -0.107773
F	 1.119696	 2.207335	 -0.953158
F	 0.749317	 2.016976	 1.125032
F	 -0.857159	 2.408802	 -0.202784

9 6 3 2 F
