%nprocshared=4
%mem=2GB
#HF/cc-pVTZ nosymm scf=tight opt=ModRedundant

Mol

0 1
H	 -0.370188	 -2.516245	 4.343420
C	 0.082313	 -2.113517	 3.458452
C	 -0.326748	 -2.538159	 2.202195
C	 1.077181	 -1.168083	 3.549379
H	 -1.101885	 -3.275364	 2.111506
C	 0.250294	 -2.024822	 1.065740
H	 1.406972	 -0.827194	 4.512562
C	 1.670737	 -0.639134	 2.411700
H	 -0.058448	 -2.346120	 0.090489
C	 1.255896	 -1.068983	 1.164617
H	 2.442343	 0.095134	 2.516276
O	 1.760432	 -0.625184	 0.000000
C	 2.773565	 0.334879	 0.000000
H	 2.728295	 0.960928	 -0.884150
H	 3.706387	 -0.206610	 0.000000
H	 2.728295	 0.960928	 0.884150

10 12 13 14 F
