%nprocshared=4
%mem=2GB
#HF/cc-pVTZ nosymm scf=tight opt=ModRedundant

Mol

0 1
H	 -3.144994	 -1.202467	 -0.018751
O	 -2.321472	 -0.864941	 -0.318626
C	 -2.021813	 0.336996	 0.342658
C	 -0.669613	 0.837286	 -0.127252
H	 -2.780861	 1.084746	 0.127159
H	 -2.006390	 0.184138	 1.420053
C	 0.490865	 -0.082543	 0.241244
H	 -0.708709	 0.967192	 -1.204587
H	 -0.507562	 1.822272	 0.303070
C	 0.081325	 -1.214041	 1.179645
H	 1.277927	 0.503719	 0.701557
H	 0.913249	 -0.506542	 -0.667567
C	 1.238882	 -2.138351	 1.542273
H	 -0.338708	 -0.791035	 2.088127
H	 -0.713209	 -1.796221	 0.719785
H	 2.035060	 -1.591374	 2.036067
H	 0.916806	 -2.929082	 2.210343
H	 1.659775	 -2.604354	 0.657324

10 7 4 8 F
