%nprocshared=4
%mem=2GB
#HF/6-31G* nosymm scf=tight opt=ModRedundant

Mol

0 1
O	 -1.635736	 -2.520617	 0.196514
C	 -1.143642	 -1.963894	 -0.737476
C	 -0.889235	 -0.467034	 -0.705952
C	 -0.720925	 -2.717749	 -1.978600
C	 0.379448	 -0.143569	 0.099626
H	 -1.746220	 0.002354	 -0.235255
H	 -0.799256	 -0.073271	 -1.714356
C	 1.631333	 -0.777471	 -0.511575
H	 0.482768	 0.934507	 0.149241
H	 0.263088	 -0.495696	 1.123449
C	 2.915987	 -0.544314	 0.291766
H	 1.766672	 -0.399098	 -1.523130
H	 1.471257	 -1.849544	 -0.605828
C	 3.373361	 0.914346	 0.347591
H	 3.708709	 -1.142521	 -0.150311
H	 2.780642	 -0.921148	 1.303579
H	 3.506512	 1.320010	 -0.651625
H	 4.322697	 0.999599	 0.867103
H	 2.660624	 1.545032	 0.868198
H	 -1.336299	 -2.410288	 -2.820055
H	 -0.832911	 -3.781541	 -1.821788
H	 0.309426	 -2.488910	 -2.235141

6 3 5 8 F
