%nprocshared=4
%mem=2GB
#HF/cc-pVTZ nosymm scf=tight opt=ModRedundant

Mol

0 1
H	 3.889604	 0.356866	 -0.089510
N	 3.091268	 -0.241216	 -0.065538
C	 1.860978	 0.530248	 0.016256
H	 3.192566	 -0.835836	 0.730398
C	 0.644130	 -0.381765	 -0.031064
H	 1.835721	 1.204666	 -0.833114
H	 1.808789	 1.151975	 0.911067
C	 -0.678115	 0.376691	 0.025731
H	 0.693998	 -0.977147	 -0.936845
H	 0.693309	 -1.082142	 0.800523
C	 -1.875330	 -0.462060	 -0.412874
H	 -0.612753	 1.260840	 -0.604319
H	 -0.847292	 0.737255	 1.037781
C	 -3.194305	 0.301661	 -0.360796
H	 -1.708074	 -0.823666	 -1.423595
H	 -1.945168	 -1.344315	 0.217618
H	 -3.168672	 1.171630	 -1.008666
H	 -4.022366	 -0.321790	 -0.678018
H	 -3.407350	 0.647209	 0.645456

12 8 5 9 F
