%nprocshared=1
%mem=2GB
#HF/6-31G* nosymm scf=tight 
prop=(read,field)

Mol

0 1
H	 -0.000158	 1.970439	 0.756886
O	 -0.000074	 1.880147	 -0.189235
C	 -0.000015	 0.544788	 -0.545071
C	 -1.278788	 -0.123879	 -0.051501
C	 1.278802	 -0.123777	 -0.051465
H	 -0.000001	 0.490718	 -1.623579
F	 -2.323342	 0.466226	 -0.592082
F	 -1.326002	 -1.401707	 -0.363407
F	 -1.389099	 -0.015543	 1.262916
F	 2.323327	 0.466585	 -0.591814
F	 1.326242	 -1.401542	 -0.363627
F	 1.388946	 -0.015690	 1.262979

@grid.dat /N
