%nprocshared=4
%mem=2GB
#HF/6-31G* nosymm scf=tight opt=ModRedundant

Mol

0 1
H	 3.729471	 -0.928294	 -0.070608
O	 2.826016	 -1.159218	 0.122261
C	 2.077727	 -0.067559	 -0.035091
C	 0.624473	 -0.343591	 0.253101
O	 2.542965	 0.974826	 -0.363729
C	 -0.265902	 0.883932	 0.072916
H	 0.324016	 -1.163849	 -0.390541
H	 0.565024	 -0.726111	 1.268924
C	 -1.728698	 0.646073	 0.462102
H	 -0.209144	 1.219470	 -0.958188
H	 0.135059	 1.692851	 0.673903
C	 -2.113018	 -0.822398	 0.664212
H	 -2.357949	 1.064223	 -0.320174
H	 -1.959932	 1.206880	 1.366637
C	 -3.603833	 -1.005447	 0.947833
H	 -1.842484	 -1.388904	 -0.224566
H	 -1.543365	 -1.250093	 1.485160
H	 -3.851469	 -2.052857	 1.088978
H	 -4.207910	 -0.629925	 0.126917
H	 -3.900161	 -0.471585	 1.846398

12 9 6 10 F
