%nprocshared=4
%mem=2GB
#HF/cc-pVTZ nosymm scf=tight opt=ModRedundant

Mol

0 1
H	 2.614283	 2.028610	 0.296620
O	 3.358864	 1.662087	 -0.142800
C	 3.565468	 0.338079	 0.273842
C	 2.533667	 -0.637565	 -0.272227
H	 4.548038	 0.064914	 -0.086598
H	 3.593945	 0.282242	 1.360360
C	 1.114816	 -0.402372	 0.240993
H	 2.544552	 -0.580764	 -1.356576
H	 2.850574	 -1.642962	 -0.005497
C	 0.113298	 -1.420414	 -0.302504
H	 0.796373	 0.598427	 -0.031033
H	 1.113377	 -0.446476	 1.328807
C	 0.458593	 -2.882978	 -0.016265
H	 -0.873093	 -1.199603	 0.098124
H	 0.038110	 -1.289806	 -1.378495
C	 0.396684	 -3.285754	 1.456039
H	 -0.229271	 -3.511305	 -0.575351
H	 1.450133	 -3.100333	 -0.407111
C	 0.651313	 -4.774286	 1.679305
H	 -0.580682	 -3.026334	 1.857194
H	 1.121884	 -2.716772	 2.029927
C	 0.593945	 -5.179150	 3.148552
H	 -0.078865	 -5.351184	 1.118407
H	 1.623842	 -5.036852	 1.271494
H	 -0.378001	 -4.958844	 3.577532
H	 0.776067	 -6.240707	 3.271170
H	 1.338765	 -4.646849	 3.731004

14 10 7 4 F
