%nprocshared=4
%mem=2GB
#HF/cc-pVTZ nosymm scf=tight opt=ModRedundant

Mol

0 1
H	 -2.171709	 0.882708	 0.500286
C	 -2.016894	 0.001719	 -0.114152
O	 -0.775228	 0.000056	 -0.739966
H	 -2.760846	 0.003757	 -0.898169
H	 -2.174774	 -0.879864	 0.498643
C	 -0.578762	 -0.761361	 -1.915094
C	 0.878346	 -0.502087	 -2.281833
C	 -0.790393	 -2.252805	 -1.647802
C	 -1.492763	 -0.280426	 -3.043765
H	 1.528044	 -0.817753	 -1.475389
H	 1.038630	 0.555479	 -2.449068
H	 1.154428	 -1.040844	 -3.180437
H	 -0.189230	 -2.572764	 -0.805247
H	 -0.497498	 -2.832334	 -2.515125
H	 -1.826599	 -2.485954	 -1.436897
H	 -1.386329	 0.788516	 -3.184215
H	 -1.230342	 -0.773900	 -3.971933
H	 -2.534825	 -0.497250	 -2.844612

6 3 2 5 F
