%nprocshared=4
%mem=2GB
#HF/cc-pVTZ nosymm scf=tight opt=ModRedundant

Mol

0 1
H	 -4.381933	 -0.934200	 -0.563045
C	 -3.511121	 -0.713508	 0.019440
C	 -2.325326	 -0.998850	 -0.459950
H	 -3.633968	 -0.260884	 0.983722
O	 -1.189946	 -0.765863	 0.237511
H	 -2.190278	 -1.444701	 -1.428509
C	 0.026572	 -0.995256	 -0.379403
C	 1.057223	 0.049888	 -0.004615
H	 -0.054361	 -1.010670	 -1.459674
H	 0.397526	 -1.952058	 -0.044198
F	 2.203233	 -0.234060	 -0.590375
F	 0.698147	 1.254887	 -0.392621
F	 1.266440	 0.094219	 1.288722

3 5 7 9 F
