%nprocshared=4
%mem=2GB
#HF/6-31G* nosymm scf=tight opt=ModRedundant

Mol

0 1
H	 1.047021	 0.311472	 2.322806
C	 1.553116	 0.257133	 1.351355
C	 0.692068	 0.589600	 0.160137
O	 2.700401	 -0.046818	 1.292351
C	 -0.558097	 -0.297372	 0.091132
H	 1.296416	 0.491245	 -0.734050
H	 0.389859	 1.632428	 0.249628
C	 -1.850991	 0.512573	 -0.019058
H	 -0.476753	 -0.965681	 -0.762987
H	 -0.604799	 -0.930658	 0.975228
C	 -3.096943	 -0.368295	 -0.099594
H	 -1.800724	 1.150330	 -0.898172
H	 -1.931651	 1.177355	 0.838044
H	 -3.060452	 -1.020287	 -0.967456
H	 -3.996858	 0.233488	 -0.175704
H	 -3.191959	 -0.995686	 0.782074

6 3 5 9 F
