%nprocshared=4
%mem=2GB
#HF/cc-pVTZ nosymm scf=tight opt=ModRedundant

Mol

0 1
O	 -0.664761	 -0.087640	 -0.112121
C	 0.485107	 0.171416	 -0.000134
C	 1.606966	 -0.836201	 0.000174
O	 0.943685	 1.402730	 0.141842
C	 2.988788	 -0.202529	 -0.000115
H	 1.465110	 -1.474645	 -0.864821
H	 1.465209	 -1.474077	 0.865596
H	 3.131767	 0.419673	 -0.873407
H	 3.750876	 -0.972315	 0.000098
H	 3.131883	 0.420264	 0.872742
C	 -0.000699	 2.463913	 0.159669
C	 0.761101	 3.757053	 0.332688
H	 -0.697791	 2.302510	 0.969829
H	 -0.560701	 2.453786	 -0.764787
H	 1.318575	 3.755231	 1.260908
H	 0.068159	 4.589965	 0.350606
H	 1.456397	 3.907419	 -0.483599

4 2 3 6 F
