%nprocshared=4
%mem=2GB
#HF/cc-pVTZ nosymm scf=tight opt=ModRedundant

Mol

0 1
H	 -0.119626	 4.007994	 -2.192538
C	 0.854485	 4.311021	 -1.784901
C	 0.992018	 4.160605	 -0.294146
O	 1.693632	 4.727432	 -2.505833
C	 0.609284	 2.761795	 0.198318
H	 2.004924	 4.419070	 -0.013877
H	 0.323929	 4.892536	 0.154451
C	 1.569902	 1.666667	 -0.260039
H	 0.572149	 2.778155	 1.282150
H	 -0.398691	 2.526421	 -0.134518
C	 1.181757	 0.280428	 0.247371
H	 2.572865	 1.908984	 0.081218
H	 1.618286	 1.650225	 -1.345772
C	 2.151032	 -0.811012	 -0.202643
H	 1.126848	 0.305382	 1.331211
H	 0.181490	 0.036922	 -0.104010
C	 3.580021	 -0.656538	 0.320835
H	 2.170545	 -0.847575	 -1.289412
H	 1.766632	 -1.772905	 0.124928
C	 4.327657	 0.562694	 -0.213579
H	 4.138806	 -1.549270	 0.057813
H	 3.561991	 -0.620783	 1.406976
H	 4.355973	 0.557257	 -1.298551
H	 3.867136	 1.491650	 0.100501
H	 5.351524	 0.571613	 0.142204

8 11 14 18 F
