%nprocshared=4
%mem=2GB
#HF/cc-pVTZ nosymm scf=tight opt=ModRedundant

Mol

0 1
H	 -1.813403	 -1.482874	 -1.238679
N	 -1.107026	 -0.779588	 -1.283325
C	 -0.561396	 -0.500007	 0.035200
H	 -1.528238	 0.036699	 -1.675232
C	 0.575129	 0.507849	 -0.048832
H	 -0.182341	 -1.431606	 0.442212
H	 -1.312148	 -0.134483	 0.737467
C	 1.951750	 -0.141983	 0.035101
H	 0.478254	 1.061643	 -0.975981
H	 0.467676	 1.231891	 0.755499
H	 2.101550	 -0.848142	 -0.774949
H	 2.738260	 0.600794	 -0.026526
H	 2.078939	 -0.679792	 0.968824

6 3 5 9 F
