%nprocshared=1
%mem=2GB
#HF/6-31G* nosymm scf=tight opt=ModRedundant

Mol

0 1
H	 -2.646374	 -0.642757	 1.268656
C	 -2.083525	 -0.384536	 0.393091
O	 -0.807605	 -0.127164	 0.768327
F	 -2.118945	 -1.383102	 -0.486752
F	 -2.621877	 0.670592	 -0.209486
C	 0.084052	 0.273579	 -0.209957
C	 -0.715492	 1.046835	 -1.250613
Cl	 0.881334	 -1.124979	 -0.948598
H	 0.851999	 0.920849	 0.176143
F	 0.074406	 1.473873	 -2.212818
F	 -1.260554	 2.098148	 -0.671746
F	 -1.671051	 0.321954	 -1.779223

9 6 3 2 F
