%nprocshared=4
%mem=2GB
#HF/cc-pVTZ nosymm scf=tight opt=ModRedundant

Mol

0 1
H	 0.027562	 4.094352	 0.860125
O	 -0.141020	 3.809030	 -0.019121
C	 -0.147365	 2.410378	 -0.081343
C	 1.254179	 1.842965	 0.025940
H	 -0.774487	 1.979349	 0.692647
H	 -0.573147	 2.139046	 -1.036733
O	 1.172093	 0.457955	 -0.054438
H	 1.706602	 2.145107	 0.971942
H	 1.871559	 2.245586	 -0.774256
C	 2.395478	 -0.199028	 -0.000366
H	 2.505946	 -0.901710	 -0.823354
H	 3.174616	 0.545641	 -0.071768
H	 2.513730	 -0.742241	 0.934223

4 7 10 13 F
