%nprocshared=1
%mem=2GB
#HF/6-31G* nosymm scf=tight 

Mol

0 1
O	 2.305749	 2.228690	 1.656467
C	 1.984792	 1.509000	 2.551894
C	 0.697214	 0.705116	 2.522713
C	 2.849657	 1.350593	 3.785617
C	 -0.132453	 0.905628	 1.257928
H	 0.957068	 -0.344936	 2.650215
H	 0.119671	 0.968645	 3.407811
C	 -1.420387	 0.080434	 1.264650
H	 0.468901	 0.644447	 0.392892
H	 -0.369666	 1.959445	 1.151405
C	 -2.259874	 0.272531	 0.000494
H	 -1.175360	 -0.974923	 1.375239
H	 -2.017893	 0.346181	 2.135531
C	 -3.549786	 -0.549746	 -0.000374
H	 -1.663800	 0.006494	 -0.870677
H	 -2.506142	 1.327047	 -0.110614
C	 -4.809590	 0.315458	 -0.000369
H	 -3.560515	 -1.202009	 -0.871156
H	 -3.561123	 -1.202955	 0.869711
H	 -4.844746	 0.956611	 -0.876632
H	 -5.706986	 -0.295590	 -0.001609
H	 -4.845960	 0.954827	 0.877144
H	 3.141639	 0.312261	 3.913018
H	 3.734046	 1.965437	 3.692568
H	 2.297889	 1.641498	 4.674752

9 5 8 12 F
15 11 8 12 F
1 2 3 6 F
9 5 3 6 F
