%nprocshared=1
%mem=2GB
#HF/6-31G* nosymm scf=tight opt=ModRedundant

Mol

0 1
H	 -3.420663	 1.227371	 -1.044276
O	 -3.452007	 0.283848	 -0.965577
C	 -3.181085	 -0.079926	 0.364119
C	 -1.765924	 0.277073	 0.805136
H	 -3.327791	 -1.152017	 0.410903
H	 -3.905698	 0.375695	 1.036898
C	 -0.677594	 -0.417312	 -0.014550
H	 -1.637766	 1.358238	 0.744969
H	 -1.659588	 0.017670	 1.857098
C	 0.578926	 -0.731648	 0.800023
H	 -0.417334	 0.207499	 -0.863423
H	 -1.080106	 -1.340777	 -0.427576
C	 1.661455	 -1.431934	 -0.025698
H	 0.970149	 0.193016	 1.217588
H	 0.312571	 -1.361026	 1.648282
C	 2.905506	 -1.847365	 0.767970
H	 1.960965	 -0.784789	 -0.848615
H	 1.230548	 -2.320933	 -0.481567
C	 3.727090	 -0.680518	 1.319218
H	 3.542148	 -2.446377	 0.121316
H	 2.608293	 -2.498701	 1.587500
H	 4.027964	 -0.004880	 0.522898
H	 4.629307	 -1.039765	 1.804793
H	 3.172506	 -0.102895	 2.051306

11 7 4 3 F
