%nprocshared=4
%mem=2GB
#HF/6-31G* nosymm scf=tight opt=ModRedundant

Mol

0 1
H	 3.729471	 -0.928294	 -0.070608
O	 2.826016	 -1.159218	 0.122261
C	 2.077727	 -0.067559	 -0.035091
C	 0.624473	 -0.343591	 0.253101
O	 2.542965	 0.974826	 -0.363729
C	 -0.265902	 0.883932	 0.072916
H	 0.324016	 -1.163849	 -0.390541
H	 0.565024	 -0.726111	 1.268924
C	 -1.728698	 0.646073	 0.462102
H	 -0.209144	 1.219470	 -0.958188
H	 0.135059	 1.692851	 0.673903
C	 -1.947848	 -0.441031	 1.518102
H	 -2.276239	 0.371374	 -0.436508
H	 -2.168825	 1.579790	 0.809402
C	 -3.428608	 -0.705946	 1.789482
H	 -1.470968	 -1.361843	 1.188352
H	 -1.463494	 -0.162120	 2.450300
H	 -3.558511	 -1.477919	 2.541476
H	 -3.939968	 -1.031912	 0.888323
H	 -3.928080	 0.190485	 2.146098

12 9 6 10 F
