%nprocshared=4
%mem=2GB
#HF/cc-pVTZ nosymm scf=tight opt=ModRedundant

Mol

0 1
H	 -2.644180	 -0.653737	 1.272255
C	 -2.092774	 -0.380414	 0.391915
O	 -0.808934	 -0.154049	 0.752536
F	 -2.163230	 -1.351640	 -0.507133
F	 -2.627232	 0.691260	 -0.169301
C	 0.085006	 0.250800	 -0.215074
C	 -0.103765	 1.753061	 -0.412184
Cl	 -0.193953	 -0.603688	 -1.743985
H	 1.108203	 0.076427	 0.068314
F	 0.730631	 2.205314	 -1.313447
F	 0.150836	 2.367449	 0.718754
F	 -1.319232	 2.055390	 -0.777545

9 6 3 2 F
