%nprocshared=4
%mem=2GB
#HF/cc-pVTZ nosymm scf=tight opt=ModRedundant

Mol

0 1
H	 -3.162190	 0.493205	 -0.000107
C	 -2.363908	 -0.234727	 0.000005
O	 -1.158738	 0.454634	 -0.000087
H	 -2.464314	 -0.863616	 -0.882153
H	 -2.464327	 -0.863359	 0.882345
C	 -0.028611	 -0.359694	 0.000037
C	 1.212847	 0.509314	 -0.000053
H	 -0.034155	 -1.007047	 -0.877198
H	 -0.034195	 -1.006836	 0.877430
C	 1.645561	 0.906720	 1.406779
H	 2.011371	 -0.029158	 -0.498382
H	 1.014634	 1.394715	 -0.593962
H	 1.872566	 0.035116	 2.011644
H	 2.533517	 1.526143	 1.377279
H	 0.869300	 1.468753	 1.915311

11 7 6 8 F
