%nprocshared=1
%mem=2GB
#HF/6-31G* nosymm scf=tight opt=ModRedundant

Mol

0 1
O	 2.862325	 1.357334	 0.000267
C	 2.843464	 0.164689	 -0.000222
C	 1.546494	 -0.624492	 -0.000609
C	 4.124123	 -0.644674	 -0.000428
C	 0.291004	 0.242674	 0.000989
H	 1.557904	 -1.283758	 -0.867573
H	 1.558622	 -1.285963	 0.864672
C	 -0.841683	 -0.364083	 -0.828847
H	 0.539330	 1.228837	 -0.378413
H	 -0.038828	 0.389246	 1.024647
C	 -2.105450	 0.497648	 -0.835591
H	 -0.502997	 -0.511597	 -1.853336
H	 -1.084562	 -1.353520	 -0.444021
C	 -3.243013	 -0.102533	 -1.663690
H	 -1.863985	 1.486767	 -1.220764
H	 -2.445422	 0.645053	 0.187975
C	 -4.501847	 0.764080	 -1.665768
H	 -2.904746	 -0.249234	 -2.687348
H	 -3.486306	 -1.090675	 -1.278667
H	 -4.299059	 1.748873	 -2.077120
H	 -5.289593	 0.312879	 -2.261229
H	 -4.885423	 0.900523	 -0.658595
H	 4.165367	 -1.288615	 -0.874074
H	 4.976217	 0.020734	 -0.001915
H	 4.166763	 -1.286207	 0.874930

9 5 3 6 F
