%nprocshared=4
%mem=2GB
#HF/cc-pVTZ nosymm scf=tight opt=ModRedundant

Mol

0 1
H	 -3.436473	 1.252944	 -1.023892
O	 -3.458596	 0.315260	 -0.960865
C	 -3.176635	 -0.080824	 0.355601
C	 -1.763371	 0.265266	 0.799691
H	 -3.321825	 -1.153438	 0.379502
H	 -3.895468	 0.357385	 1.043382
C	 -1.008483	 -0.904165	 1.424909
H	 -1.207525	 0.646218	 -0.055747
H	 -1.824513	 1.085612	 1.510804
C	 0.418319	 -0.548454	 1.834392
H	 -0.990577	 -1.732812	 0.725669
H	 -1.556926	 -1.253262	 2.296602
C	 1.166617	 -1.721768	 2.464021
H	 0.956344	 -0.190905	 0.961708
H	 0.395811	 0.279928	 2.539469
C	 2.574206	 -1.393432	 2.964758
H	 1.223599	 -2.537033	 1.746425
H	 0.582916	 -2.096418	 3.300412
C	 3.574445	 -1.035259	 1.868228
H	 2.952087	 -2.251414	 3.512343
H	 2.518577	 -0.578270	 3.681582
H	 3.646807	 -1.830271	 1.132840
H	 4.563269	 -0.881603	 2.285193
H	 3.297287	 -0.126994	 1.346842

7 4 3 2 F
