%nprocshared=4
%mem=2GB
#HF/cc-pVTZ nosymm scf=tight opt=ModRedundant

Mol

0 1
O	 -0.427360	 -1.392182	 -0.665010
C	 0.595354	 -1.297218	 -0.076775
C	 1.246364	 -0.005813	 0.348416
O	 1.317782	 -2.342573	 0.292610
C	 0.453207	 1.232821	 -0.049003
H	 1.394842	 -0.066917	 1.419758
H	 2.239873	 0.009843	 -0.088647
C	 -0.998367	 1.217982	 0.432195
H	 0.481498	 1.345443	 -1.127236
H	 0.951413	 2.105557	 0.354893
C	 -2.006026	 0.651844	 -0.567064
H	 -1.283494	 2.238284	 0.670628
H	 -1.064559	 0.661687	 1.364630
C	 -1.565622	 -0.679947	 -1.168865
H	 -2.964949	 0.521278	 -0.070786
H	 -2.173415	 1.361218	 -1.372237
C	 -0.356446	 -0.559511	 -2.091992
H	 -2.394816	 -1.116037	 -1.720773
H	 -1.335002	 -1.377616	 -0.367030
C	 0.076335	 -1.893711	 -2.690648
H	 -0.585446	 0.137143	 -2.893835
H	 0.474083	 -0.126374	 -1.541112
H	 0.935986	 -1.772958	 -3.339803
H	 -0.721517	 -2.336357	 -3.277679
H	 0.345389	 -2.602205	 -1.914211
C	 0.824678	 -3.623490	 -0.043565
H	 -0.139967	 -3.792406	 0.411591
H	 1.544729	 -4.329140	 0.337866
H	 0.731980	 -3.727573	 -1.114467

11 8 5 9 F
