%nprocshared=1
%mem=2GB
#HF/6-31G* nosymm scf=tight opt=ModRedundant

Mol

0 1
H	 -3.420663	 1.227371	 -1.044276
O	 -3.452007	 0.283848	 -0.965577
C	 -3.181085	 -0.079926	 0.364119
C	 -1.765924	 0.277073	 0.805136
H	 -3.327791	 -1.152017	 0.410903
H	 -3.905698	 0.375695	 1.036898
C	 -0.677594	 -0.417312	 -0.014550
H	 -1.637766	 1.358238	 0.744969
H	 -1.659588	 0.017670	 1.857098
C	 -1.213697	 -1.079345	 -1.285567
H	 -0.183618	 -1.159542	 0.604959
H	 0.084517	 0.312776	 -0.282041
C	 -0.117594	 -1.767225	 -2.103777
H	 -1.980887	 -1.799896	 -1.012354
H	 -1.705357	 -0.329853	 -1.904546
C	 -0.590679	 -2.369371	 -3.431846
H	 0.344917	 -2.547373	 -1.501160
H	 0.666372	 -1.042534	 -2.313623
C	 -1.566554	 -3.538731	 -3.288072
H	 0.281130	 -2.709722	 -3.985380
H	 -1.048202	 -1.589597	 -4.037509
H	 -1.140432	 -4.329281	 -2.676036
H	 -1.803354	 -3.964720	 -4.258276
H	 -2.501852	 -3.233778	 -2.830486

11 7 4 3 F
