%nprocshared=4
%mem=2GB
#HF/cc-pVTZ nosymm scf=tight opt=ModRedundant

Mol

0 1
H	 -4.024094	 -0.454727	 0.000004
C	 -2.962215	 -0.297920	 0.000004
C	 -2.454736	 0.988978	 0.000025
C	 -2.105837	 -1.382632	 -0.000016
H	 -3.120052	 1.830438	 0.000041
C	 -1.090106	 1.189676	 0.000026
H	 -2.500390	 -2.380229	 -0.000033
C	 -0.739175	 -1.183302	 -0.000016
H	 -0.680214	 2.179144	 0.000042
C	 -0.227341	 0.104540	 0.000006
H	 -0.073209	 -2.021168	 -0.000032
C	 1.238974	 0.374429	 0.000004
O	 1.673391	 0.876554	 -1.140671
O	 1.948486	 0.162473	 0.925664
C	 3.054479	 1.165345	 -1.234253
H	 3.340759	 1.895281	 -0.492220
H	 3.207381	 1.560415	 -2.225278
H	 3.639982	 0.269253	 -1.094239

13 12 10 6 F
