%nprocshared=1
%mem=2GB
#HF/6-31G* nosymm scf=tight 

Mol

0 1
O	 1.214711	 1.306902	 -0.000018
C	 1.122059	 0.121804	 -0.000188
C	 -0.170150	 -0.657997	 -0.000612
O	 2.172624	 -0.688929	 0.000216
C	 -1.412532	 0.227344	 -0.000452
H	 -0.153702	 -1.313099	 -0.867402
H	 -0.153924	 -1.313811	 0.865644
C	 -1.087042	 1.685966	 -0.325792
H	 -1.896414	 0.165687	 0.969373
H	 -2.128139	 -0.159238	 -0.719454
C	 -2.326384	 2.579847	 -0.329020
H	 -0.369087	 2.068111	 0.397106
H	 -0.600071	 1.741724	 -1.297297
H	 -2.816865	 2.572500	 0.640015
H	 -2.068113	 3.608097	 -0.561990
H	 -3.049210	 2.244157	 -1.066905
C	 3.452279	 -0.082609	 0.000533
H	 3.583069	 0.529321	 -0.880332
H	 4.163299	 -0.894027	 0.001117
H	 3.582335	 0.529955	 0.881077

9 5 8 12 F
1 2 3 6 F
1 2 4 17 F
