%nprocshared=4
%mem=2GB
#HF/6-31G* nosymm scf=tight opt=ModRedundant

Mol

0 1
H	 -4.031818	 -0.453427	 -0.000094
C	 -2.967712	 -0.297022	 -0.000064
C	 -2.458620	 0.992929	 0.000032
C	 -2.109895	 -1.385637	 -0.000122
H	 -3.124998	 1.836319	 0.000077
C	 -1.090278	 1.193236	 0.000070
H	 -2.506361	 -2.384847	 -0.000198
C	 -0.739812	 -1.187531	 -0.000085
H	 -0.678594	 2.184290	 0.000146
C	 -0.226438	 0.104061	 0.000012
H	 -0.072310	 -2.027032	 -0.000131
C	 1.239129	 0.373821	 0.000060
O	 1.542384	 1.594063	 -0.416653
O	 2.061724	 -0.418685	 0.337891
C	 2.916638	 1.936246	 -0.448410
H	 3.345592	 1.871425	 0.540828
H	 2.958146	 2.951977	 -0.809550
H	 3.455094	 1.278221	 -1.114734

13 12 10 6 F
