%nprocshared=4
%mem=2GB
#HF/cc-pVTZ nosymm scf=tight opt=ModRedundant

Mol

0 1
H	 -3.436473	 1.252944	 -1.023892
O	 -3.458596	 0.315260	 -0.960865
C	 -3.176635	 -0.080824	 0.355601
C	 -1.763371	 0.265266	 0.799691
H	 -3.321825	 -1.153438	 0.379502
H	 -3.895468	 0.357385	 1.043382
C	 -0.796938	 0.515120	 -0.354390
H	 -1.800355	 1.142092	 1.444418
H	 -1.394808	 -0.549846	 1.417868
C	 0.607471	 0.893267	 0.108868
H	 -1.194009	 1.299064	 -0.989748
H	 -0.744224	 -0.378999	 -0.971058
C	 1.571038	 1.137045	 -1.050942
H	 0.545761	 1.780047	 0.732329
H	 1.004156	 0.102253	 0.741952
C	 3.012231	 1.440406	 -0.637682
H	 1.195381	 1.953533	 -1.663380
H	 1.574341	 0.257891	 -1.689453
C	 3.198457	 2.760364	 0.106748
H	 3.629008	 1.455875	 -1.531059
H	 3.388545	 0.625307	 -0.024965
H	 2.825262	 3.593858	 -0.479844
H	 4.247837	 2.943353	 0.308138
H	 2.679491	 2.766852	 1.057662

7 4 3 2 F
