%nprocshared=4
%mem=2GB
#HF/cc-pVTZ nosymm scf=tight opt=ModRedundant

Mol

0 1
H	 1.951532	 1.167921	 -2.499158
C	 1.782550	 0.793532	 -1.495135
C	 0.305381	 0.486335	 -1.289942
H	 2.111074	 1.545051	 -0.787878
H	 2.405977	 -0.082144	 -1.363746
N	 0.000297	 0.000045	 0.046090
H	 -0.252170	 1.397522	 -1.457251
H	 -0.036113	 -0.220987	 -2.050868
C	 -1.359159	 0.315706	 0.454404
C	 0.314976	 -1.410300	 0.208657
C	 -2.416729	 -0.286720	 -0.460525
H	 -1.478729	 1.390261	 0.442008
H	 -1.539692	 0.003361	 1.486761
C	 0.656949	 -1.788219	 1.643463
H	 1.169346	 -1.643528	 -0.411599
H	 -0.503271	 -2.037772	 -0.155574
H	 -2.285276	 0.073129	 -1.473515
H	 -2.371743	 -1.368476	 -0.483209
H	 -3.408658	 -0.007405	 -0.121593
H	 1.511495	 -1.218881	 1.987722
H	 -0.164125	 -1.600360	 2.324142
H	 0.898546	 -2.843960	 1.705545

3 6 9 11 F
