%nprocshared=4
%mem=2GB
#HF/cc-pVTZ nosymm scf=tight opt=ModRedundant

Mol

0 1
O	 -1.543275	 1.238249	 0.032210
C	 -1.081510	 0.147522	 0.122720
C	 0.327029	 -0.064006	 0.641890
C	 -1.859988	 -1.079033	 -0.289354
C	 1.349460	 -0.017068	 -0.500215
H	 0.399029	 -1.014606	 1.159950
H	 0.538021	 0.726928	 1.350471
C	 2.779782	 -0.209014	 -0.009215
H	 1.115007	 -0.782959	 -1.233891
H	 1.259071	 0.936707	 -1.006644
H	 3.481860	 -0.160270	 -0.833072
H	 2.903471	 -1.171535	 0.475559
H	 3.052569	 0.559584	 0.705428
H	 -1.270048	 -1.701770	 -0.952623
H	 -2.779996	 -0.790162	 -0.773746
H	 -2.084571	 -1.672080	 0.591391

4 2 3 5 F
