%nprocshared=1
%mem=2GB
#HF/6-31G* nosymm scf=tight opt=ModRedundant

Mol

0 1
O	 -1.276010	 1.052711	 -0.768302
C	 -1.204840	 0.067374	 -0.106123
C	 -2.388195	 -0.672128	 0.458071
O	 -0.067104	 -0.527208	 0.221609
H	 -2.388023	 -1.694060	 0.097175
H	 -3.300579	 -0.174919	 0.164318
H	 -2.315377	 -0.706351	 1.539059
C	 0.085314	 -1.057980	 1.545610
C	 1.578676	 -1.071586	 1.819968
C	 -0.546783	 -2.439052	 1.621366
H	 -0.414676	 -0.389263	 2.230690
H	 1.991716	 -0.072428	 1.740422
H	 1.771432	 -1.443555	 2.820875
H	 2.092971	 -1.711606	 1.111075
H	 -0.414588	 -2.855927	 2.614722
H	 -1.608349	 -2.387255	 1.415525
H	 -0.081697	 -3.108697	 0.904932

8 4 2 1 F
