%nprocshared=4
%mem=2GB
#HF/cc-pVTZ nosymm scf=tight opt=ModRedundant

Mol

0 1
H	 0.013941	 2.222571	 -4.844689
C	 0.265932	 1.842406	 -3.873015
C	 -0.171816	 2.502600	 -2.738924
C	 1.026971	 0.694482	 -3.758672
H	 -0.762489	 3.393550	 -2.828446
C	 0.152396	 2.013480	 -1.490668
H	 1.365958	 0.183237	 -4.638779
C	 1.352434	 0.203476	 -2.509478
H	 -0.178163	 2.512014	 -0.602269
C	 0.915580	 0.862319	 -1.371236
H	 1.941650	 -0.685276	 -2.417429
C	 1.238974	 0.374429	 0.000004
O	 1.968286	 -0.725612	 -0.000027
O	 0.881408	 0.913749	 0.993211
C	 3.373556	 -0.568203	 0.000011
H	 3.695416	 -0.031588	 -0.879663
H	 3.782700	 -1.565294	 -0.000152
H	 3.695405	 -0.031851	 0.879862

10 12 13 15 F
