%nprocshared=4
%mem=2GB
#HF/cc-pVTZ nosymm scf=tight opt=ModRedundant

Mol

0 1
H	 0.101018	 -0.062709	 0.297884
N	 -0.625934	 -0.663929	 -0.000707
C	 -1.978635	 -0.158664	 0.001017
C	 -0.295573	 -1.915197	 -0.390285
H	 -2.519057	 -0.493535	 -0.876362
H	 -1.938890	 0.917202	 -0.004137
H	 -2.514266	 -0.485137	 0.884506
C	 1.182472	 -2.229024	 -0.314681
O	 -1.096582	 -2.716391	 -0.771793
H	 1.539394	 -2.125762	 0.703426
H	 1.342910	 -3.240249	 -0.650465
H	 1.747233	 -1.547024	 -0.939613

4 2 3 5 F
