%nprocshared=4
%mem=2GB
#HF/cc-pVTZ nosymm scf=tight opt=ModRedundant

Mol

0 1
O	 1.382515	 0.829428	 -1.884778
C	 0.781622	 1.719742	 -1.387478
C	 0.097148	 1.672260	 -0.045509
O	 0.630629	 2.901797	 -1.962250
C	 0.954249	 1.071609	 1.059443
H	 -0.203298	 2.686261	 0.197355
H	 -0.824592	 1.114550	 -0.175119
C	 2.314339	 1.753439	 1.174687
H	 1.088076	 0.012270	 0.871921
H	 0.424454	 1.145026	 2.002427
C	 3.270268	 1.378668	 0.045875
H	 2.179384	 2.832760	 1.184911
H	 2.769557	 1.496035	 2.128499
C	 4.629448	 2.060468	 0.160731
H	 2.817018	 1.636205	 -0.907223
H	 3.407076	 0.301013	 0.035745
H	 4.528977	 3.140591	 0.138957
H	 5.282658	 1.773241	 -0.655082
H	 5.123880	 1.794533	 1.089197
C	 1.774850	 3.725117	 -2.063383
H	 2.168391	 3.953019	 -1.083894
H	 1.449161	 4.628457	 -2.553025
H	 2.542901	 3.240436	 -2.647673

1 2 4 20 F
