%nprocshared=1
%mem=2GB
#HF/6-31G* nosymm scf=tight opt=ModRedundant

Mol

0 1
H	 -2.172150	 0.880146	 0.502514
C	 -2.018062	 -0.000025	 -0.114509
O	 -0.774054	 0.001095	 -0.743181
H	 -2.760490	 0.003458	 -0.901350
H	 -2.173624	 -0.884374	 0.496163
C	 -0.492468	 0.968276	 -1.739073
C	 0.937340	 0.642288	 -2.164975
C	 -1.439684	 0.822546	 -2.934370
C	 -0.556073	 2.387357	 -1.165246
H	 0.991209	 -0.370948	 -2.546921
H	 1.606321	 0.717603	 -1.315171
H	 1.279948	 1.322988	 -2.937587
H	 -1.441923	 -0.202846	 -3.288765
H	 -1.119118	 1.464349	 -3.748573
H	 -2.458392	 1.099682	 -2.685402
H	 0.062685	 2.461391	 -0.277153
H	 -0.193317	 3.104325	 -1.894560
H	 -1.567550	 2.677190	 -0.901539

6 3 2 5 F
