%nprocshared=1
%mem=2GB
#HF/6-31G* nosymm scf=tight opt=ModRedundant

Mol

0 1
O	 0.008339	 -0.256255	 0.172268
C	 1.122059	 0.121804	 -0.000188
C	 1.535808	 1.552498	 -0.244771
O	 2.172624	 -0.688929	 0.000216
C	 0.363843	 2.529080	 -0.255959
H	 2.260667	 1.816182	 0.520608
H	 2.077978	 1.577313	 -1.186148
C	 0.810466	 3.970407	 -0.505904
H	 -0.164083	 2.466220	 0.690534
H	 -0.347317	 2.226700	 -1.018403
C	 -0.357691	 4.955401	 -0.519990
H	 1.523469	 4.268034	 0.260334
H	 1.341102	 4.027220	 -1.454201
H	 -0.888118	 4.947185	 0.427762
H	 -0.013979	 5.969409	 -0.698668
H	 -1.071455	 4.705019	 -1.299407
C	 3.452279	 -0.082609	 0.000533
H	 3.583069	 0.529321	 -0.880332
H	 4.163299	 -0.894027	 0.001117
H	 3.582335	 0.529955	 0.881077

1 2 4 17 F
