%nprocshared=4
%mem=2GB
#HF/cc-pVTZ nosymm scf=tight opt=ModRedundant

Mol

0 1
O	 1.816773	 1.332945	 -0.963344
C	 0.781622	 1.719742	 -1.387478
C	 -0.518669	 0.958420	 -1.351787
O	 0.630629	 2.901797	 -1.962250
C	 -0.824290	 0.329213	 -0.000115
H	 -1.301960	 1.647247	 -1.650821
H	 -0.472151	 0.207303	 -2.133516
C	 -0.529134	 1.274749	 1.160430
H	 -0.245060	 -0.580576	 0.109653
H	 -1.865221	 0.027464	 0.026349
C	 0.963158	 1.447488	 1.428185
H	 -0.970483	 2.247885	 0.956794
H	 -1.013301	 0.905153	 2.061662
C	 1.258224	 2.392867	 2.587755
H	 1.447596	 1.817513	 0.528986
H	 1.404707	 0.476344	 1.633305
H	 0.858639	 3.383415	 2.397020
H	 2.325084	 2.493063	 2.750558
H	 0.815749	 2.031444	 3.510156
C	 1.774850	 3.725117	 -2.063383
H	 2.168391	 3.953019	 -1.083894
H	 1.449161	 4.628457	 -2.553025
H	 2.542901	 3.240436	 -2.647673

9 5 3 6 F
