%nprocshared=1
%mem=2GB
#HF/6-31G* nosymm scf=tight 

Mol

0 1
H	 2.591676	 2.013956	 0.335017
O	 3.341076	 1.666752	 -0.126416
C	 3.569581	 0.339145	 0.272707
C	 5.016962	 0.071704	 0.670565
H	 2.920036	 0.171260	 1.122166
H	 3.262216	 -0.352572	 -0.510768
C	 6.017916	 0.235286	 -0.475821
H	 5.280661	 0.742804	 1.483864
H	 5.078960	 -0.941995	 1.062913
C	 7.454173	 -0.092545	 -0.058078
H	 5.971916	 1.255249	 -0.847207
H	 5.729817	 -0.413192	 -1.303357
C	 8.485082	 -0.027279	 -1.190910
H	 7.756429	 0.579943	 0.742702
H	 7.471223	 -1.094519	 0.365545
C	 8.723063	 1.371733	 -1.765896
H	 9.430510	 -0.413061	 -0.815204
H	 8.181880	 -0.699758	 -1.991958
C	 9.833618	 1.402789	 -2.818103
H	 8.977546	 2.054151	 -0.956171
H	 7.807508	 1.754405	 -2.210445
C	 10.068842	 2.796948	 -3.398323
H	 10.757666	 1.035241	 -2.377045
H	 9.585724	 0.714241	 -3.623295
H	 10.350686	 3.502379	 -2.621693
H	 10.862484	 2.786412	 -4.139037
H	 9.172571	 3.178020	 -3.879829

14 10 7 4 F
14 10 13 16 F
10 7 4 8 F
8 4 3 2 F
10 13 16 20 F
20 16 19 22 F
