%nprocshared=4
%mem=2GB
#HF/cc-pVTZ nosymm scf=tight opt=ModRedundant

Mol

0 1
H	 -3.207633	 0.034171	 -0.260874
C	 -2.905399	 1.041142	 -0.539347
O	 -1.549419	 1.102534	 -0.831051
H	 -3.448030	 1.334129	 -1.426251
H	 -3.171058	 1.716561	 0.271898
C	 -0.718530	 0.758693	 0.228682
C	 0.718529	 0.758687	 -0.228709
H	 -0.829694	 1.474585	 1.042998
H	 -0.971721	 -0.227366	 0.612106
O	 1.401606	 -0.295166	 0.366636
H	 0.748705	 0.673477	 -1.312803
H	 1.176496	 1.708671	 0.046552
C	 2.714315	 -0.441627	 -0.061017
H	 2.765292	 -0.641548	 -1.128869
H	 3.305661	 0.447341	 0.150952
H	 3.143725	 -1.278506	 0.470147

3 6 7 11 F
