%nprocshared=4
%mem=2GB
#HF/cc-pVTZ nosymm scf=tight opt=ModRedundant

Mol

0 1
O	 -4.741559	 3.677983	 3.374923
C	 -3.562142	 3.759984	 3.486103
C	 -2.630085	 2.634875	 3.084568
C	 -2.907686	 5.004973	 4.041002
C	 -2.930863	 2.021940	 1.724174
H	 -1.614819	 3.023858	 3.116108
H	 -2.673335	 1.879345	 3.865793
C	 -3.349589	 0.557508	 1.820181
H	 -2.055562	 2.114167	 1.091359
H	 -3.711486	 2.597372	 1.239777
C	 -3.653852	 -0.069217	 0.462621
H	 -2.563022	 -0.013010	 2.309155
H	 -4.226714	 0.472445	 2.457894
C	 -2.513516	 0.073409	 -0.541385
H	 -4.552048	 0.384998	 0.051470
H	 -3.882400	 -1.123554	 0.597780
C	 -2.378581	 1.486680	 -1.098383
H	 -1.579651	 -0.217093	 -0.067629
H	 -2.667840	 -0.623009	 -1.361205
H	 -2.188862	 2.203013	 -0.305972
H	 -1.560993	 1.553602	 -1.806968
H	 -3.284972	 1.793996	 -1.609321
H	 -2.221465	 5.423139	 3.312795
H	 -3.662109	 5.735040	 4.290482
H	 -2.329392	 4.760820	 4.925313

9 5 3 6 F
