%nprocshared=4
%mem=2GB
#HF/cc-pVTZ nosymm scf=tight opt=ModRedundant

Mol

0 1
O	 -0.427360	 -1.392182	 -0.665010
C	 0.595354	 -1.297218	 -0.076775
C	 1.246364	 -0.005813	 0.348416
O	 1.317782	 -2.342573	 0.292610
C	 0.453207	 1.232821	 -0.049003
H	 1.394842	 -0.066917	 1.419758
H	 2.239873	 0.009843	 -0.088647
C	 -0.998367	 1.217982	 0.432195
H	 0.481498	 1.345443	 -1.127236
H	 0.951413	 2.105557	 0.354893
C	 -1.729675	 2.555203	 0.325266
H	 -1.004441	 0.902463	 1.471221
H	 -1.553169	 0.459390	 -0.115541
C	 -1.562378	 3.219296	 -1.038837
H	 -2.788148	 2.398966	 0.520452
H	 -1.375589	 3.237671	 1.092336
C	 -0.140471	 3.702974	 -1.309038
H	 -2.246801	 4.060819	 -1.114632
H	 -1.855696	 2.519020	 -1.817582
C	 0.018245	 4.366813	 -2.672821
H	 0.153956	 4.402949	 -0.531821
H	 0.544536	 2.862528	 -1.236415
H	 1.037969	 4.697889	 -2.832616
H	 -0.628608	 5.233057	 -2.763988
H	 -0.235920	 3.680752	 -3.474026
C	 0.824678	 -3.623490	 -0.043565
H	 -0.139967	 -3.792406	 0.411591
H	 1.544729	 -4.329140	 0.337866
H	 0.731980	 -3.727573	 -1.114467

11 8 5 9 F
