%nprocshared=4
%mem=2GB
#HF/cc-pVTZ nosymm scf=tight opt=ModRedundant

Mol

0 1
H	 2.614283	 2.028610	 0.296620
O	 3.358864	 1.662087	 -0.142800
C	 3.565468	 0.338079	 0.273842
C	 4.195890	 -0.542584	 -0.794655
H	 4.224713	 0.397098	 1.129349
H	 2.631077	 -0.101932	 0.616997
C	 3.313812	 -0.770759	 -2.020104
H	 5.137221	 -0.095349	 -1.099670
H	 4.434393	 -1.500985	 -0.339704
C	 3.965960	 -1.685626	 -3.055749
H	 3.081475	 0.185082	 -2.477696
H	 2.366570	 -1.205933	 -1.706032
C	 3.095962	 -2.008507	 -4.271934
H	 4.898613	 -1.238011	 -3.390452
H	 4.236531	 -2.618987	 -2.569850
C	 2.800441	 -0.822742	 -5.188651
H	 3.595378	 -2.778500	 -4.853503
H	 2.158328	 -2.445733	 -3.936033
C	 2.014498	 -1.214452	 -6.437357
H	 3.738089	 -0.359056	 -5.487450
H	 2.243656	 -0.062743	 -4.648842
C	 1.714487	 -0.032289	 -7.352986
H	 2.571265	 -1.965778	 -6.990619
H	 1.081199	 -1.685536	 -6.140548
H	 2.629487	 0.441200	 -7.693312
H	 1.158784	 -0.345154	 -8.229580
H	 1.125529	 0.720969	 -6.840070

4 3 2 1 F
