%nprocshared=4
%mem=2GB
#HF/cc-pVTZ nosymm scf=tight opt=ModRedundant

Mol

0 1
H	 -1.835082	 1.385983	 0.000069
C	 -1.300516	 0.441153	 -0.000028
O	 -0.006604	 0.654344	 -0.000106
O	 -1.828920	 -0.612308	 0.000113
C	 0.824647	 -0.315710	 0.630640
C	 2.255721	 0.148870	 0.500659
H	 0.670457	 -1.272168	 0.151713
H	 0.528033	 -0.409906	 1.665585
H	 2.537619	 0.242414	 -0.540375
H	 2.916048	 -0.569319	 0.971856
H	 2.394476	 1.109030	 0.981086

5 3 2 4 F
