%nprocshared=4
%mem=2GB
#HF/cc-pVTZ nosymm scf=tight opt=ModRedundant

Mol

0 1
O	 1.707442	 -0.521754	 -0.264061
C	 0.860843	 0.273204	 -0.013120
C	 -0.623368	 -0.117453	 -0.005652
C	 1.244470	 1.705849	 0.300540
C	 -0.892588	 -1.253841	 -1.002900
C	 -1.473463	 1.100646	 -0.372896
C	 -0.981836	 -0.579025	 1.418506
H	 -0.609333	 -0.970024	 -2.010649
H	 -1.950451	 -1.487353	 -1.013175
H	 -0.360848	 -2.161259	 -0.746463
H	 -1.232203	 1.461623	 -1.364827
H	 -2.524364	 0.834451	 -0.354500
H	 -1.312381	 1.914833	 0.318657
H	 -2.035706	 -0.826342	 1.468082
H	 -0.425078	 -1.458934	 1.716857
H	 -0.788494	 0.205047	 2.140903
H	 1.206025	 1.857994	 1.373450
H	 2.254935	 1.876425	 -0.037595
H	 0.576150	 2.423744	 -0.154659

1 2 3 5 F
