%nprocshared=4
%mem=2GB
#HF/cc-pVTZ nosymm scf=tight opt=ModRedundant

Mol

0 1
H	 2.032884	 3.561084	 -4.195509
C	 1.879947	 2.912461	 -3.354037
C	 0.969597	 3.259331	 -2.371903
C	 2.593323	 1.732938	 -3.255026
H	 0.416240	 4.175020	 -2.449422
C	 0.773620	 2.425337	 -1.290912
H	 3.299070	 1.464847	 -4.017206
C	 2.398206	 0.896799	 -2.173222
H	 0.072844	 2.678426	 -0.521550
C	 1.487020	 1.241172	 -1.187494
H	 2.949052	 -0.017391	 -2.093514
C	 1.238974	 0.374429	 0.000004
O	 1.968286	 -0.725612	 -0.000027
O	 0.467512	 0.639346	 0.860146
C	 3.373556	 -0.568203	 0.000011
H	 3.695416	 -0.031588	 -0.879663
H	 3.782700	 -1.565294	 -0.000152
H	 3.695405	 -0.031851	 0.879862

10 12 13 15 F
