%nprocshared=4
%mem=2GB
#HF/cc-pVTZ nosymm scf=tight opt=ModRedundant

Mol

0 1
H	 -3.162190	 0.493205	 -0.000107
C	 -2.363908	 -0.234727	 0.000005
O	 -1.158738	 0.454634	 -0.000087
H	 -2.464314	 -0.863616	 -0.882153
H	 -2.464327	 -0.863359	 0.882345
C	 -0.028611	 -0.359694	 0.000037
C	 1.212847	 0.509314	 -0.000053
H	 -0.034155	 -1.007047	 -0.877198
H	 -0.034195	 -1.006836	 0.877430
C	 1.372299	 1.297088	 1.295453
H	 2.078030	 -0.124352	 -0.160836
H	 1.160120	 1.186850	 -0.845107
H	 1.451490	 0.636677	 2.152584
H	 2.265968	 1.908350	 1.268327
H	 0.527603	 1.956851	 1.463588

11 7 6 8 F
