%nprocshared=4
%mem=2GB
#HF/cc-pVTZ nosymm scf=tight opt=ModRedundant

Mol

0 1
O	 2.876723	 -3.248887	 1.563080
C	 2.355760	 -2.286772	 1.111514
C	 2.765402	 -0.860671	 1.377518
O	 1.317782	 -2.342573	 0.292610
C	 3.961135	 -0.737674	 2.313653
H	 2.954953	 -0.403507	 0.413867
H	 1.897788	 -0.349701	 1.783086
C	 5.184130	 -1.537438	 1.862544
H	 3.668164	 -1.046160	 3.311187
H	 4.231166	 0.308212	 2.392490
C	 5.556742	 -1.375073	 0.389723
H	 4.988469	 -2.587869	 2.056131
H	 6.038333	 -1.271768	 2.481443
C	 5.602750	 0.083815	 -0.056726
H	 6.527122	 -1.834126	 0.215069
H	 4.848997	 -1.910346	 -0.236468
C	 4.232546	 0.755134	 -0.082106
H	 6.047929	 0.142165	 -1.047055
H	 6.261640	 0.641297	 0.605048
C	 4.286507	 2.211682	 -0.530807
H	 3.573113	 0.199320	 -0.743120
H	 3.787410	 0.700141	 0.907685
H	 3.298654	 2.657873	 -0.537405
H	 4.694705	 2.297703	 -1.532348
H	 4.911498	 2.802184	 0.130934
C	 0.824678	 -3.623490	 -0.043565
H	 -0.139967	 -3.792406	 0.411591
H	 1.544729	 -4.329140	 0.337866
H	 0.731980	 -3.727573	 -1.114467

2 4 26 27 F
