%nprocshared=4
%mem=2GB
#HF/cc-pVTZ nosymm scf=tight opt=ModRedundant

Mol

0 1
H	 -2.644180	 -0.653737	 1.272255
C	 -2.092774	 -0.380414	 0.391915
O	 -0.808934	 -0.154049	 0.752536
F	 -2.163230	 -1.351640	 -0.507133
F	 -2.627232	 0.691260	 -0.169301
C	 0.085006	 0.250800	 -0.215074
C	 1.378450	 0.645517	 0.493783
Cl	 -0.547965	 1.626837	 -1.137791
H	 0.314048	 -0.529942	 -0.919083
F	 2.278927	 1.028196	 -0.375540
F	 1.851182	 -0.398550	 1.132346
F	 1.195983	 1.605737	 1.358037

9 6 3 2 F
