%nprocshared=4
%mem=2GB
#HF/cc-pVTZ nosymm scf=tight opt=ModRedundant

Mol

0 1
O	 3.042008	 -0.988224	 0.050560
C	 2.574127	 -2.072921	 -0.023620
C	 3.300766	 -3.312667	 -0.478981
O	 1.317782	 -2.342573	 0.292610
C	 2.425882	 -4.268590	 -1.280257
H	 4.163677	 -2.981180	 -1.043830
H	 3.695151	 -3.795936	 0.409411
C	 1.738370	 -3.617734	 -2.481321
H	 1.681871	 -4.707792	 -0.624804
H	 3.040447	 -5.090499	 -1.626355
C	 2.645930	 -2.757288	 -3.359030
H	 0.928178	 -2.997856	 -2.109158
H	 1.271719	 -4.387644	 -3.091858
C	 3.953511	 -3.453087	 -3.727653
H	 2.112959	 -2.490615	 -4.268809
H	 2.876687	 -1.822945	 -2.855750
C	 4.890874	 -3.653835	 -2.540292
H	 4.464775	 -2.874061	 -4.492948
H	 3.732373	 -4.419115	 -4.175708
C	 6.195615	 -4.347847	 -2.916824
H	 5.112913	 -2.689392	 -2.091663
H	 4.382336	 -4.234796	 -1.775616
H	 6.837066	 -4.474855	 -2.052305
H	 6.745538	 -3.773382	 -3.654851
H	 6.009070	 -5.330537	 -3.337216
C	 0.824678	 -3.623490	 -0.043565
H	 -0.139967	 -3.792406	 0.411591
H	 1.544729	 -4.329140	 0.337866
H	 0.731980	 -3.727573	 -1.114467

6 3 2 1 F
