%nprocshared=4
%mem=2GB
#HF/cc-pVTZ nosymm scf=tight opt=ModRedundant

Mol

0 1
H	 0.919047	 -1.769489	 0.848041
C	 0.243151	 -0.937284	 1.053097
N	 -0.537714	 -0.645117	 0.000000
O	 0.234270	 -0.381650	 2.105670
C	 -1.522613	 0.412524	 0.000000
H	 -0.423081	 -1.192133	 -0.817078
H	 -2.150256	 0.356137	 -0.880771
H	 -1.005621	 1.357208	 0.000000
H	 -2.150256	 0.356137	 0.880771

6 3 5 7 F
