%nprocshared=4
%mem=2GB
#HF/cc-pVTZ nosymm scf=tight 
prop=(read,field)

Mol

0 1
H	 -3.268214	 -0.875720	 0.463107
C	 -2.806015	 0.000007	 0.024886
N	 -1.391133	 0.000016	 0.301321
H	 -3.029448	 0.000055	 -1.045738
H	 -3.268126	 0.875758	 0.463150
C	 -0.734069	 1.191305	 -0.191298
C	 -0.734142	 -1.191300	 -0.191285
H	 -0.818578	 1.272514	 -1.279008
H	 -1.215481	 2.061015	 0.239900
C	 0.734142	 1.191300	 0.191285
H	 -1.215598	 -2.060985	 0.239920
H	 -0.818652	 -1.272509	 -1.278994
C	 0.734069	 -1.191305	 0.191298
H	 1.215598	 2.060985	 -0.239920
H	 0.818652	 1.272509	 1.278994
N	 1.391133	 -0.000016	 -0.301321
H	 1.215481	 -2.061015	 -0.239900
H	 0.818578	 -1.272514	 1.279008
C	 2.806015	 -0.000007	 -0.024886
H	 3.268214	 0.875720	 -0.463107
H	 3.268126	 -0.875758	 -0.463150
H	 3.029448	 -0.000055	 1.045738

@grid.dat /N
