%nprocshared=4
%mem=2GB
#HF/cc-pVTZ nosymm scf=tight opt=ModRedundant

Mol

0 1
H	 1.246132	 -1.648126	 -2.670704
C	 1.271321	 -0.887488	 -1.897671
C	 0.045081	 -1.006103	 -1.002813
H	 1.296071	 0.085366	 -2.372922
H	 2.195173	 -1.012192	 -1.346600
N	 0.000297	 0.000045	 0.046090
H	 -0.833590	 -0.892564	 -1.622622
H	 -0.010804	 -2.013462	 -0.580870
C	 -1.359159	 0.315706	 0.454404
C	 0.854443	 -0.335702	 1.174023
C	 -2.416729	 -0.286720	 -0.460525
H	 -1.478729	 1.390261	 0.442008
H	 -1.539692	 0.003361	 1.486761
C	 1.363104	 0.885937	 1.927215
H	 1.711293	 -0.881135	 0.803388
H	 0.341988	 -1.010996	 1.864877
H	 -2.285276	 0.073129	 -1.473515
H	 -2.371743	 -1.368476	 -0.483209
H	 -3.408658	 -0.007405	 -0.121593
H	 1.931327	 1.525930	 1.263559
H	 0.556708	 1.474291	 2.347146
H	 2.006165	 0.580634	 2.745796

3 6 9 11 F
