%nprocshared=4
%mem=2GB
#HF/cc-pVTZ nosymm scf=tight opt=ModRedundant

Mol

0 1
H	 1.048191	 -1.132137	 -4.098573
O	 1.968469	 -0.948327	 -4.064923
C	 2.182958	 0.428744	 -3.900780
C	 1.845728	 0.932990	 -2.505539
H	 3.233949	 0.589731	 -4.099478
H	 1.624337	 0.991316	 -4.646371
C	 0.365036	 0.836890	 -2.144757
H	 2.434916	 0.374226	 -1.784569
H	 2.165607	 1.970109	 -2.438755
C	 0.059766	 1.382355	 -0.750441
H	 0.047755	 -0.198826	 -2.204997
H	 -0.221007	 1.387012	 -2.879064
C	 -1.420651	 1.378938	 -0.364947
H	 0.623615	 0.815035	 -0.013928
H	 0.427457	 2.403021	 -0.691170
C	 -2.041121	 -0.006551	 -0.194127
H	 -1.531097	 1.924188	 0.568344
H	 -1.985895	 1.936898	 -1.108139
C	 -3.489218	 0.042606	 0.286507
H	 -1.448219	 -0.579079	 0.515907
H	 -2.002163	 -0.551710	 -1.132363
C	 -4.219984	 1.311773	 -0.139038
H	 -4.022855	 -0.824300	 -0.093339
H	 -3.510372	 -0.038577	 1.370031
H	 -4.244251	 1.405725	 -1.219696
H	 -5.244345	 1.313233	 0.215630
H	 -3.732090	 2.196311	 0.257073

20 16 19 22 F
