%nprocshared=4
%mem=2GB
#HF/cc-pVTZ nosymm scf=tight opt=ModRedundant

Mol

0 1
H	 -0.856392	 -2.399144	 0.715329
N	 -0.101440	 -1.756078	 0.605387
C	 -0.561396	 -0.500007	 0.035200
H	 0.572583	 -2.191729	 0.011050
C	 0.575129	 0.507849	 -0.048832
H	 -1.339318	 -0.106979	 0.681408
H	 -1.006998	 -0.619580	 -0.953514
C	 1.951750	 -0.141983	 0.035101
H	 0.478254	 1.061643	 -0.975981
H	 0.467676	 1.231891	 0.755499
H	 2.101550	 -0.848142	 -0.774949
H	 2.738260	 0.600794	 -0.026526
H	 2.078939	 -0.679792	 0.968824

6 3 5 9 F
