%nprocshared=4
%mem=2GB
#HF/cc-pVTZ nosymm scf=tight opt=ModRedundant

Mol

0 1
H	 -3.436473	 1.252944	 -1.023892
O	 -3.458596	 0.315260	 -0.960865
C	 -3.176635	 -0.080824	 0.355601
C	 -1.763371	 0.265266	 0.799691
H	 -3.321825	 -1.153438	 0.379502
H	 -3.895468	 0.357385	 1.043382
C	 -0.673390	 -0.426948	 -0.013392
H	 -1.631049	 1.344913	 0.747560
H	 -1.664587	 -0.001624	 1.849167
C	 0.737842	 -0.043159	 0.423759
H	 -0.806103	 -0.190518	 -1.063345
H	 -0.797221	 -1.503753	 0.074146
C	 1.824000	 -0.743224	 -0.390623
H	 0.850588	 1.033777	 0.343840
H	 0.868587	 -0.286314	 1.476203
C	 1.752962	 -2.271188	 -0.379350
H	 2.800797	 -0.428121	 -0.030864
H	 1.758009	 -0.403630	 -1.420643
C	 2.024557	 -2.912847	 0.979199
H	 2.475345	 -2.653242	 -1.094174
H	 0.776856	 -2.587287	 -0.738125
H	 2.992320	 -2.609813	 1.366087
H	 2.025509	 -3.994060	 0.900330
H	 1.275478	 -2.641587	 1.713299

17 13 10 7 F
