%nprocshared=4
%mem=2GB
#HF/cc-pVTZ nosymm scf=tight opt=ModRedundant

Mol

0 1
H	 -2.171709	 0.882708	 0.500286
C	 -2.016894	 0.001719	 -0.114152
O	 -0.775228	 0.000056	 -0.739966
H	 -2.760846	 0.003757	 -0.898169
H	 -2.174774	 -0.879864	 0.498643
C	 0.115414	 -1.079212	 -0.536947
C	 1.334832	 -0.712310	 -1.375571
C	 0.513133	 -1.196636	 0.935694
C	 -0.485654	 -2.393093	 -1.039966
H	 1.749079	 0.229836	 -1.039620
H	 1.053942	 -0.604906	 -2.415604
H	 2.101360	 -1.474390	 -1.300494
H	 0.876927	 -0.244931	 1.303908
H	 1.301416	 -1.930835	 1.051671
H	 -0.315869	 -1.509926	 1.557921
H	 -0.825296	 -2.283968	 -2.062915
H	 0.259173	 -3.179366	 -1.010222
H	 -1.322893	 -2.716479	 -0.434144

6 3 2 5 F
