%nprocshared=4
%mem=2GB
#HF/cc-pVTZ nosymm scf=tight opt=ModRedundant

Mol

0 1
O	 1.351299	 1.079498	 -0.661166
C	 1.121787	 0.124983	 0.000110
C	 -0.170912	 -0.649867	 -0.000147
O	 1.994783	 -0.396913	 0.846207
C	 -1.413045	 0.229353	 0.001137
H	 -0.152877	 -1.303435	 -0.866175
H	 -0.152278	 -1.305116	 0.864586
C	 -2.702562	 -0.586401	 0.000228
H	 -1.390744	 0.882001	 -0.864365
H	 -1.390549	 0.879837	 0.868264
C	 -3.953810	 0.284959	 -0.000782
H	 -2.717793	 -1.238567	 -0.869075
H	 -2.719108	 -1.238472	 0.869576
H	 -3.983727	 0.924403	 -0.876454
H	 -4.852989	 -0.320147	 -0.001515
H	 -3.985140	 0.924399	 0.874841
C	 3.255774	 0.232999	 0.948345
H	 3.766295	 0.220881	 -0.003206
H	 3.813111	 -0.333107	 1.676883
H	 3.145558	 1.256074	 1.276053

1 2 3 6 F
