%nprocshared=4
%mem=2GB
#HF/6-31G* nosymm scf=tight opt=ModRedundant

Mol

0 1
H	 -3.161837	 0.500524	 -0.000234
C	 -2.367097	 -0.232926	 -0.000000
O	 -1.158440	 0.455814	 -0.000122
H	 -2.468853	 -0.861886	 -0.882833
H	 -2.468942	 -0.861421	 0.883154
C	 -0.029776	 -0.365156	 0.000148
C	 1.212217	 0.508981	 0.000007
H	 -0.036772	 -1.013236	 -0.877259
H	 -0.036869	 -1.012778	 0.877897
C	 2.496848	 -0.300895	 -0.169415
H	 1.120208	 1.237645	 -0.799521
H	 1.240541	 1.067095	 0.930816
H	 2.499307	 -0.848692	 -1.107678
H	 3.366641	 0.347403	 -0.165484
H	 2.620193	 -1.021060	 0.634670

11 7 6 8 F
