%nprocshared=4
%mem=2GB
#HF/cc-pVTZ nosymm scf=tight opt=ModRedundant

Mol

0 1
O	 3.219313	 0.959291	 -0.614106
C	 2.698710	 0.058177	 -0.050237
C	 1.246364	 -0.005813	 0.348416
O	 3.344101	 -1.038700	 0.312317
C	 0.453207	 1.232821	 -0.049003
H	 0.839270	 -0.907818	 -0.092281
H	 1.216683	 -0.160521	 1.422434
C	 -0.998367	 1.217982	 0.432195
H	 0.481498	 1.345443	 -1.127236
H	 0.951413	 2.105557	 0.354893
C	 -1.882951	 0.151251	 -0.211235
H	 -1.429490	 2.193659	 0.228843
H	 -1.019755	 1.099323	 1.513279
C	 -3.354279	 0.552979	 -0.271191
H	 -1.524630	 -0.048562	 -1.218485
H	 -1.797704	 -0.784177	 0.333965
C	 -4.248512	 -0.507796	 -0.906705
H	 -3.450220	 1.481935	 -0.828125
H	 -3.710081	 0.764486	 0.734560
C	 -5.716452	 -0.098437	 -0.964636
H	 -3.894347	 -0.720049	 -1.911810
H	 -4.155911	 -1.436155	 -0.349544
H	 -6.322812	 -0.872709	 -1.420503
H	 -5.847095	 0.808560	 -1.545496
H	 -6.110365	 0.087752	 0.029031
C	 4.720529	 -1.114346	 0.001449
H	 4.874321	 -1.055557	 -1.065852
H	 5.057824	 -2.067950	 0.373977
H	 5.264321	 -0.313596	 0.480350

15 11 8 5 F
