%nprocshared=4
%mem=2GB
#HF/cc-pVTZ nosymm scf=tight opt=ModRedundant

Mol

0 1
H	 -1.835082	 1.385983	 0.000069
C	 -1.300516	 0.441153	 -0.000028
O	 -0.006604	 0.654344	 -0.000106
O	 -1.828920	 -0.612308	 0.000113
C	 0.852093	 -0.482521	 -0.000161
C	 2.255361	 -0.000460	 0.281192
H	 0.783402	 -0.972022	 -0.961216
H	 0.510539	 -1.178237	 0.753021
H	 2.582596	 0.698022	 -0.478420
H	 2.935649	 -0.843677	 0.288052
H	 2.308357	 0.490798	 1.244429

7 5 3 2 F
