%nprocshared=4
%mem=2GB
#HF/cc-pVTZ nosymm scf=tight opt=ModRedundant

Mol

0 1
O	 -0.661489	 -1.654523	 1.661367
C	 -1.523129	 -1.436538	 0.878753
C	 -2.789244	 -2.244153	 0.783920
O	 -1.481217	 -0.452708	 0.001092
H	 -3.292492	 -2.208695	 1.740771
H	 -3.443818	 -1.877968	 0.009271
H	 -2.525724	 -3.274947	 0.588738
C	 -0.332055	 0.384012	 -0.000250
C	 0.892252	 -0.506059	 -0.000295
H	 -0.360822	 1.020205	 -0.874146
H	 -0.359817	 1.021310	 0.872861
C	 2.188199	 0.299473	 -0.001416
H	 0.857046	 -1.152781	 -0.871031
H	 0.857910	 -1.151798	 0.871202
C	 3.102115	 -0.040219	 -1.175508
H	 1.955194	 1.361117	 -0.025876
H	 2.723242	 0.126711	 0.929098
C	 4.397785	 0.763676	 -1.176343
H	 2.569157	 0.133692	 -2.105974
H	 3.335772	 -1.100851	 -1.152028
H	 4.197830	 1.828357	 -1.233936
H	 5.022882	 0.498839	 -2.021104
H	 4.970232	 0.584492	 -0.272434

16 12 9 13 F
