%nprocshared=4
%mem=2GB
#HF/6-31G* nosymm scf=tight opt=ModRedundant

Mol

0 1
H	 -4.363321	 -1.031888	 -0.653467
C	 -3.499960	 -0.777897	 -0.069723
C	 -2.301078	 -1.090015	 -0.504770
H	 -3.643685	 -0.269373	 0.864973
O	 -1.180634	 -0.819263	 0.215062
H	 -2.135314	 -1.592742	 -1.441244
C	 0.051604	 -1.018856	 -0.387932
C	 1.043764	 0.054862	 -0.001873
H	 -0.017620	 -1.041351	 -1.469781
H	 0.437898	 -1.966374	 -0.042284
F	 2.212596	 -0.199467	 -0.571921
F	 0.652529	 1.252447	 -0.405055
F	 1.230877	 0.110694	 1.300533

3 5 7 9 F
