%nprocshared=1
%mem=2GB
#HF/6-31G* nosymm scf=tight 

Mol

0 1
H	 3.066681	 -2.195675	 2.713287
O	 3.802093	 -2.182941	 2.118242
C	 3.500498	 -2.943896	 0.976295
C	 2.498116	 -2.265290	 0.049229
H	 4.440883	 -3.083201	 0.458661
H	 3.138978	 -3.931348	 1.260939
C	 1.113937	 -2.062863	 0.670469
H	 2.905508	 -1.304727	 -0.255267
H	 2.405446	 -2.870400	 -0.851115
C	 0.115918	 -1.429151	 -0.302766
H	 1.206967	 -1.436861	 1.553550
H	 0.723932	 -3.023687	 1.006705
C	 -1.309753	 -1.282496	 0.241564
H	 0.486096	 -0.452649	 -0.609782
H	 0.079185	 -2.036217	 -1.204887
C	 -2.037799	 -0.007733	 -0.193645
H	 -1.890610	 -2.142323	 -0.085726
H	 -1.285946	 -1.330893	 1.329189
C	 -3.489788	 0.042957	 0.286558
H	 -2.017067	 0.064384	 -1.280144
H	 -1.513726	 0.868678	 0.179924
C	 -4.216917	 1.317354	 -0.141063
H	 -4.025645	 -0.823308	 -0.095450
H	 -3.513059	 -0.038752	 1.371301
H	 -4.239342	 1.411634	 -1.223113
H	 -5.243387	 1.322503	 0.212445
H	 -3.726170	 2.201406	 0.256408

14 10 7 4 F
10 7 4 8 F
8 4 3 2 F
10 13 16 20 F
20 16 19 22 F
4 3 2 1 F
