%nprocshared=4
%mem=2GB
#HF/cc-pVTZ nosymm scf=tight opt=ModRedundant

Mol

0 1
O	 1.668200	 1.605771	 0.478351
C	 1.183871	 1.022157	 1.387119
C	 -0.126563	 0.278425	 1.351521
O	 1.746901	 0.946530	 2.581980
C	 -0.824290	 0.329213	 -0.000115
H	 0.077027	 -0.744594	 1.650576
H	 -0.753211	 0.695104	 2.133271
C	 -2.146151	 -0.432825	 -0.000068
H	 -0.164707	 -0.077629	 -0.758206
H	 -0.995677	 1.363774	 -0.275071
C	 -3.366283	 0.483552	 0.000557
H	 -2.189286	 -1.084450	 -0.869996
H	 -2.188867	 -1.085083	 0.869399
C	 -4.687436	 -0.278003	 0.000108
H	 -3.325150	 1.134819	 -0.867957
H	 -3.325087	 1.133730	 0.869885
H	 -4.773783	 -0.912098	 -0.876078
H	 -5.531922	 0.401392	 0.000363
H	 -4.773901	 -0.912898	 0.875703
C	 2.986449	 1.602186	 2.757942
H	 3.729914	 1.198683	 2.086633
H	 3.274080	 1.425184	 3.781556
H	 2.886275	 2.662067	 2.576751

9 5 8 12 F
