%nprocshared=4
%mem=2GB
#HF/cc-pVTZ nosymm scf=tight opt=ModRedundant

Mol

0 1
H	 -5.774324	 5.726882	 -0.062128
C	 -6.224785	 4.780689	 0.267550
C	 -5.307659	 3.881457	 1.051230
O	 -7.346913	 4.531997	 -0.008655
C	 -5.359488	 2.425373	 0.579205
H	 -4.303891	 4.282671	 0.998205
H	 -5.633915	 3.932893	 2.087674
C	 -4.789956	 2.214817	 -0.822038
H	 -4.808987	 1.815606	 1.287353
H	 -6.387428	 2.072644	 0.612590
C	 -5.641798	 2.853761	 -1.915610
H	 -4.698714	 1.148533	 -1.011301
H	 -3.781066	 2.615976	 -0.873428
C	 -6.900381	 3.527547	 -1.372262
H	 -5.037082	 3.575553	 -2.455684
H	 -5.927719	 2.092630	 -2.638262
C	 -7.827821	 4.111512	 -2.439380
H	 -6.614724	 4.314215	 -0.677756
H	 -7.459838	 2.800038	 -0.790848
C	 -7.244121	 5.287623	 -3.218572
H	 -8.743922	 4.435874	 -1.955707
H	 -8.114795	 3.326049	 -3.133643
H	 -6.941812	 6.086551	 -2.549005
H	 -6.377675	 4.999038	 -3.801388
H	 -7.976863	 5.694192	 -3.906144

12 8 11 14 F
