%nprocshared=4
%mem=2GB
#HF/cc-pVTZ nosymm scf=tight opt=ModRedundant

Mol

0 1
O	 2.868453	 1.353349	 -0.000734
C	 2.841259	 0.166180	 -0.000295
C	 1.542794	 -0.614730	 -0.000853
C	 4.113372	 -0.651103	 0.000743
C	 0.288398	 0.247429	 0.000314
H	 1.557171	 -1.273139	 -0.866508
H	 1.557484	 -1.274998	 0.863344
C	 0.130273	 1.051322	 1.287895
H	 -0.578639	 -0.386281	 -0.147243
H	 0.316855	 0.917554	 -0.851306
C	 -1.124084	 1.920068	 1.301983
H	 0.104939	 0.372953	 2.137864
H	 1.004298	 1.683019	 1.430376
C	 -1.289589	 2.726919	 2.586637
H	 -1.998316	 1.289485	 1.159868
H	 -1.099309	 2.599053	 0.453164
C	 -2.545238	 3.592419	 2.593273
H	 -1.315645	 2.048954	 3.435533
H	 -0.416758	 3.358476	 2.728839
H	 -3.438767	 2.986231	 2.487522
H	 -2.632656	 4.151260	 3.517976
H	 -2.533120	 4.305588	 1.775785
H	 4.145311	 -1.294584	 -0.871587
H	 4.970080	 0.004978	 -0.000091
H	 4.145223	 -1.291980	 0.874988

9 5 3 6 F
