%nprocshared=4
%mem=2GB
#HF/cc-pVTZ nosymm scf=tight opt=ModRedundant

Mol

0 1
O	 2.868453	 1.353349	 -0.000734
C	 2.841259	 0.166180	 -0.000295
C	 1.542794	 -0.614730	 -0.000853
C	 4.113372	 -0.651103	 0.000743
C	 0.288398	 0.247429	 0.000314
H	 1.557171	 -1.273139	 -0.866508
H	 1.557484	 -1.274998	 0.863344
C	 -0.993089	 -0.581367	 -0.000217
H	 0.305153	 0.900562	 -0.864701
H	 0.305567	 0.898805	 0.866656
C	 -2.258482	 0.271340	 0.000669
H	 -1.002280	 -1.233920	 -0.870484
H	 -1.002061	 -1.235367	 0.868958
C	 -2.115814	 1.570588	 -0.786945
H	 -2.533894	 0.502800	 1.026675
H	 -3.081464	 -0.308228	 -0.410340
C	 -3.384251	 2.417244	 -0.781383
H	 -1.294165	 2.151104	 -0.376053
H	 -1.841779	 1.340140	 -1.812965
H	 -3.665681	 2.693629	 0.229285
H	 -3.249388	 3.331191	 -1.348422
H	 -4.217260	 1.876787	 -1.218471
H	 4.145311	 -1.294584	 -0.871587
H	 4.970080	 0.004978	 -0.000091
H	 4.145223	 -1.291980	 0.874988

15 11 8 12 F
