%nprocshared=4
%mem=2GB
#HF/cc-pVTZ nosymm scf=tight opt=ModRedundant

Mol

0 1
O	 0.843598	 1.893167	 0.457532
C	 0.037563	 1.837416	 1.322553
C	 -1.228176	 1.019986	 1.288245
O	 0.148721	 2.503678	 2.460145
C	 -1.413045	 0.229353	 0.001137
H	 -1.210245	 0.364654	 2.152941
H	 -2.055458	 1.702714	 1.452407
C	 -2.702562	 -0.586401	 0.000228
H	 -0.562552	 -0.427984	 -0.140674
H	 -1.409225	 0.911265	 -0.841790
C	 -3.953810	 0.284959	 -0.000782
H	 -2.717793	 -1.238567	 -0.869075
H	 -2.719108	 -1.238472	 0.869576
H	 -3.983727	 0.924403	 -0.876454
H	 -4.852989	 -0.320147	 -0.001515
H	 -3.985140	 0.924399	 0.874841
C	 1.293832	 3.314791	 2.627875
H	 2.193451	 2.719431	 2.578269
H	 1.199152	 3.765490	 3.602438
H	 1.334684	 4.079099	 1.866043

9 5 8 12 F
