%nprocshared=4
%mem=2GB
#HF/cc-pVTZ nosymm scf=tight opt=ModRedundant

Mol

0 1
O	 -2.817697	 1.304178	 0.001046
C	 -2.664672	 0.129869	 0.003507
C	 -3.797908	 -0.860100	 -0.001145
O	 -1.481217	 -0.452708	 0.001092
H	 -4.408836	 -0.679689	 -0.875387
H	 -3.443486	 -1.878443	 -0.002770
H	 -4.412123	 -0.683688	 0.871605
C	 -0.332055	 0.384012	 -0.000250
C	 0.892252	 -0.506059	 -0.000295
H	 -0.360822	 1.020205	 -0.874146
H	 -0.359817	 1.021310	 0.872861
C	 2.188199	 0.299473	 -0.001416
H	 0.857046	 -1.152781	 -0.871031
H	 0.857910	 -1.151798	 0.871202
C	 2.909702	 0.272842	 1.343147
H	 2.853140	 -0.084543	 -0.771067
H	 1.973882	 1.330616	 -0.271206
C	 4.204177	 1.078659	 1.342797
H	 3.125974	 -0.756946	 1.612998
H	 2.246257	 0.656516	 2.113032
H	 4.902706	 0.696907	 0.605797
H	 4.690662	 1.039344	 2.310419
H	 4.016201	 2.121268	 1.109379

16 12 9 13 F
