%nprocshared=4
%mem=2GB
#HF/cc-pVTZ nosymm scf=tight opt=ModRedundant

Mol

0 1
H	 -1.483485	 -0.272352	 0.299885
N	 -0.625934	 -0.663929	 -0.000707
C	 -0.610910	 -2.047101	 -0.415079
C	 0.468494	 0.129045	 -0.002160
H	 -0.920138	 -2.697966	 0.394082
H	 0.394002	 -2.303836	 -0.703755
H	 -1.269745	 -2.206701	 -1.260361
C	 1.785715	 -0.615093	 0.000603
O	 0.413285	 1.323206	 0.000532
H	 1.866994	 -1.243310	 -0.878792
H	 2.591506	 0.100263	 0.006422
H	 1.860358	 -1.250360	 0.875522

3 2 4 9 F
