%nprocshared=4
%mem=2GB
#HF/cc-pVTZ nosymm scf=tight opt=ModRedundant

Mol

0 1
O	 -1.510770	 1.240811	 -0.054933
C	 -1.081510	 0.147522	 0.122720
C	 0.327029	 -0.064006	 0.641890
C	 -1.903028	 -1.084121	 -0.174656
C	 1.349460	 -0.017068	 -0.500215
H	 0.399029	 -1.014606	 1.159950
H	 0.538021	 0.726928	 1.350471
C	 1.147058	 1.186545	 -1.413502
H	 2.355366	 0.006792	 -0.091044
H	 1.269035	 -0.932495	 -1.074544
H	 1.873970	 1.189558	 -2.217006
H	 1.253032	 2.117462	 -0.866770
H	 0.158848	 1.174853	 -1.859792
H	 -1.341891	 -1.779207	 -0.789259
H	 -2.820449	 -0.808163	 -0.671328
H	 -2.133314	 -1.593056	 0.755831

9 5 3 2 F
