%nprocshared=4
%mem=2GB
#HF/cc-pVTZ nosymm scf=tight opt=ModRedundant

Mol

0 1
O	 -4.741559	 3.677983	 3.374923
C	 -3.562142	 3.759984	 3.486103
C	 -2.630085	 2.634875	 3.084568
C	 -2.907686	 5.004973	 4.041002
C	 -2.930863	 2.021940	 1.724174
H	 -1.614819	 3.023858	 3.116108
H	 -2.673335	 1.879345	 3.865793
C	 -2.514595	 2.926967	 0.567991
H	 -3.990853	 1.804557	 1.658742
H	 -2.424697	 1.066610	 1.644966
C	 -2.811059	 2.324012	 -0.802003
H	 -3.024217	 3.884014	 0.655295
H	 -1.450872	 3.142361	 0.641217
C	 -4.267450	 1.903790	 -0.978286
H	 -2.167751	 1.462037	 -0.960956
H	 -2.549754	 3.043339	 -1.574283
C	 -4.620204	 0.630331	 -0.216934
H	 -4.916348	 2.710973	 -0.649155
H	 -4.474044	 1.759666	 -2.035388
H	 -4.457194	 0.753698	 0.848547
H	 -5.659757	 0.360128	 -0.363017
H	 -4.011821	 -0.204679	 -0.548101
H	 -2.221465	 5.423139	 3.312795
H	 -3.662109	 5.735040	 4.290482
H	 -2.329392	 4.760820	 4.925313

9 5 3 6 F
