%nprocshared=4
%mem=2GB
#HF/cc-pVTZ nosymm scf=tight opt=ModRedundant

Mol

0 1
H	 -7.558504	 4.323745	 0.507852
C	 -7.506805	 3.235900	 0.363607
C	 -6.411704	 2.546302	 1.131136
O	 -8.271567	 2.698218	 -0.359819
C	 -5.622177	 1.552598	 0.273889
H	 -5.767023	 3.300243	 1.563911
H	 -6.893829	 2.010867	 1.946102
C	 -4.789956	 2.214817	 -0.822038
H	 -4.970513	 0.980202	 0.925070
H	 -6.308668	 0.836399	 -0.171064
C	 -5.641798	 2.853761	 -1.915610
H	 -4.130857	 1.472489	 -1.264357
H	 -4.141236	 2.970090	 -0.385972
C	 -6.900381	 3.527547	 -1.372262
H	 -5.037082	 3.575553	 -2.455684
H	 -5.927719	 2.092630	 -2.638262
C	 -7.827821	 4.111512	 -2.439380
H	 -6.614724	 4.314215	 -0.677756
H	 -7.459838	 2.800038	 -0.790848
C	 -7.244121	 5.287623	 -3.218572
H	 -8.743922	 4.435874	 -1.955707
H	 -8.114795	 3.326049	 -3.133643
H	 -6.941812	 6.086551	 -2.549005
H	 -6.377675	 4.999038	 -3.801388
H	 -7.976863	 5.694192	 -3.906144

12 8 11 14 F
