%nprocshared=4
%mem=2GB
#HF/cc-pVTZ nosymm scf=tight opt=ModRedundant

Mol

0 1
H	 3.721907	 -0.933076	 -0.066039
O	 2.824271	 -1.154299	 0.131461
C	 2.076458	 -0.067370	 -0.038225
C	 0.626018	 -0.337582	 0.258241
O	 2.538288	 0.965419	 -0.381593
C	 -0.267326	 0.883135	 0.076490
H	 0.325620	 -1.161483	 -0.378003
H	 0.574537	 -0.713685	 1.275261
C	 -1.726822	 0.642622	 0.463839
H	 -0.210803	 1.217591	 -0.953497
H	 0.129920	 1.693110	 0.675679
C	 -2.521562	 -0.224570	 -0.511049
H	 -2.216682	 1.608403	 0.544821
H	 -1.770162	 0.199428	 1.456385
C	 -3.993510	 -0.342527	 -0.129037
H	 -2.441466	 0.196795	 -1.509583
H	 -2.091615	 -1.219723	 -0.563686
H	 -4.534442	 -0.960050	 -0.836667
H	 -4.470921	 0.631265	 -0.106545
H	 -4.107932	 -0.788110	 0.853571

12 9 6 10 F
