%nprocshared=1
%mem=2GB
#HF/6-31G* nosymm scf=tight 

Mol

0 1
H	 2.474999	 2.089865	 2.862986
N	 1.636288	 1.542562	 2.839178
C	 1.116666	 1.453402	 1.482133
H	 0.975527	 1.999374	 3.438801
C	 -0.103902	 0.540379	 1.433594
H	 1.900262	 1.037998	 0.855815
H	 0.858645	 2.426410	 1.056597
C	 -0.679275	 0.379305	 0.025956
H	 0.175988	 -0.428134	 1.837919
H	 -0.873329	 0.939536	 2.093892
C	 -1.903357	 -0.536963	 -0.023547
H	 0.090096	 -0.016796	 -0.635119
H	 -0.948384	 1.356638	 -0.371848
C	 -3.225172	 0.228290	 0.028445
H	 -1.867824	 -1.134999	 -0.931459
H	 -1.860449	 -1.239604	 0.805977
H	 -3.313397	 0.915643	 -0.808262
H	 -4.073500	 -0.448134	 -0.008893
H	 -3.306061	 0.809945	 0.942516

6 3 5 9 F
12 8 5 9 F
1 2 3 6 F
