%nprocshared=4
%mem=2GB
#HF/cc-pVTZ nosymm scf=tight opt=ModRedundant

Mol

0 1
H	 2.036848	 -1.331116	 1.980615
O	 1.525408	 -1.409448	 1.189396
C	 0.546255	 -0.510441	 1.230252
C	 -0.318151	 -0.570512	 0.000144
O	 0.407828	 0.228313	 2.142966
C	 -1.454884	 0.441630	 -0.000560
H	 0.333796	 -0.431398	 -0.856304
H	 -0.694384	 -1.585572	 -0.077334
C	 -2.822577	 -0.232186	 0.000063
H	 -1.359760	 1.084704	 -0.867077
H	 -1.359641	 1.085996	 0.864983
H	 -2.954352	 -0.858985	 -0.875745
H	 -3.615886	 0.505352	 0.000019
H	 -2.953878	 -0.858359	 0.876394

7 4 6 10 F
