%nprocshared=4
%mem=2GB
#HF/cc-pVTZ nosymm scf=tight opt=ModRedundant

Mol

0 1
O	 1.075136	 -0.269482	 -0.432647
C	 0.029490	 0.077183	 0.000078
C	 -1.232113	 -0.748027	 0.000015
O	 -0.170253	 1.262228	 0.552349
C	 -2.501422	 0.088592	 -0.000052
H	 -1.188777	 -1.400384	 -0.865133
H	 -1.188857	 -1.400312	 0.865225
H	 -2.548170	 0.725504	 -0.873205
H	 -3.371613	 -0.556398	 -0.000040
H	 -2.548215	 0.725571	 0.873047
C	 0.934152	 2.141745	 0.618525
H	 1.733057	 1.707330	 1.200993
H	 0.572312	 3.038928	 1.093877
H	 1.302021	 2.366726	 -0.371577

4 2 3 6 F
