%nprocshared=4
%mem=2GB
#HF/cc-pVTZ nosymm scf=tight opt=ModRedundant

Mol

0 1
H	 -3.162190	 0.493205	 -0.000107
C	 -2.363908	 -0.234727	 0.000005
O	 -1.158738	 0.454634	 -0.000087
H	 -2.464314	 -0.863616	 -0.882153
H	 -2.464327	 -0.863359	 0.882345
C	 -0.028611	 -0.359694	 0.000037
C	 1.212847	 0.509314	 -0.000053
H	 -0.034155	 -1.007047	 -0.877198
H	 -0.034195	 -1.006836	 0.877430
C	 0.887671	 1.989308	 0.167962
H	 1.866810	 0.177495	 0.798792
H	 1.747605	 0.347564	 -0.929474
H	 0.373049	 2.177221	 1.104412
H	 1.791423	 2.586168	 0.164511
H	 0.253304	 2.348496	 -0.635549

11 7 6 8 F
