%nprocshared=4
%mem=2GB
#HF/cc-pVTZ nosymm scf=tight opt=ModRedundant

Mol

0 1
O	 -0.053865	 0.073955	 -0.127552
C	 1.121787	 0.124983	 0.000110
C	 1.849441	 0.727416	 1.174443
O	 1.969101	 -0.353489	 -0.896273
C	 1.295755	 0.297599	 2.525225
H	 2.896117	 0.458891	 1.075218
H	 1.808983	 1.805511	 1.058094
C	 1.215642	 -1.219809	 2.664372
H	 0.311810	 0.731518	 2.663455
H	 1.917586	 0.706411	 3.313733
C	 0.659872	 -1.661618	 4.013749
H	 0.594046	 -1.623932	 1.869676
H	 2.204384	 -1.648908	 2.524730
H	 -0.342403	 -1.276717	 4.168281
H	 0.614345	 -2.742189	 4.084243
H	 1.279653	 -1.302005	 4.828077
C	 3.226978	 0.281687	 -1.004047
H	 3.107866	 1.319775	 -1.276836
H	 3.762124	 -0.246898	 -1.776112
H	 3.765395	 0.222432	 -0.069799

1 2 4 17 F
