%nprocshared=4
%mem=2GB
#HF/cc-pVTZ nosymm scf=tight opt=ModRedundant

Mol

0 1
H	 -2.698799	 -0.000846	 0.036018
C	 -1.694291	 -0.000483	 0.434279
O	 -0.828718	 -0.000608	 -0.655022
H	 -1.576855	 0.881100	 1.056504
H	 -1.576401	 -0.881658	 1.057001
C	 -1.356248	 0.212765	 -1.941125
C	 -2.311614	 -0.893942	 -2.373266
C	 -1.967583	 1.600240	 -2.100593
H	 -0.482368	 0.161917	 -2.578593
H	 -1.860922	 -1.865428	 -2.211553
H	 -2.535835	 -0.794338	 -3.428989
H	 -3.251686	 -0.857219	 -1.835214
H	 -1.278289	 2.358466	 -1.749863
H	 -2.179411	 1.790494	 -3.146397
H	 -2.898453	 1.703169	 -1.555223

6 3 2 1 F
