%nprocshared=4
%mem=2GB
#HF/cc-pVTZ nosymm scf=tight opt=ModRedundant

Mol

0 1
O	 0.218938	 1.039514	 -0.662366
C	 0.029490	 0.077183	 0.000078
C	 -1.232113	 -0.748027	 0.000015
O	 0.922671	 -0.408686	 0.845886
C	 -2.501422	 0.088592	 -0.000052
H	 -1.188777	 -1.400384	 -0.865133
H	 -1.188857	 -1.400312	 0.865225
H	 -2.548170	 0.725504	 -0.873205
H	 -3.371613	 -0.556398	 -0.000040
H	 -2.548215	 0.725571	 0.873047
C	 2.157685	 0.271151	 0.946899
H	 2.667916	 0.278186	 -0.004863
H	 2.737422	 -0.271195	 1.676002
H	 2.006591	 1.289436	 1.273257

4 2 3 6 F
