%nprocshared=4
%mem=2GB
#HF/6-31G* nosymm scf=tight opt=ModRedundant

Mol

0 1
O	 0.625848	 1.349995	 -0.000749
C	 0.486307	 0.169203	 0.000779
C	 1.608116	 -0.841643	 0.000302
O	 -0.698257	 -0.426125	 0.001050
C	 2.990107	 -0.200498	 -0.000684
H	 1.468623	 -1.481519	 -0.865924
H	 1.469683	 -1.481289	 0.866878
H	 3.129736	 0.423364	 -0.875135
H	 3.757882	 -0.966877	 -0.001197
H	 3.130964	 0.423383	 0.873533
C	 -0.921260	 -1.446931	 0.968327
C	 -2.330372	 -1.962863	 0.767009
H	 -0.785323	 -1.031136	 1.957377
H	 -0.186094	 -2.228340	 0.832231
H	 -3.054276	 -1.167202	 0.901341
H	 -2.543375	 -2.746216	 1.487174
H	 -2.451861	 -2.371043	 -0.229929

11 4 2 3 F
