%nprocshared=4
%mem=2GB
#HF/6-31G* nosymm scf=tight opt=ModRedundant

Mol

0 1
O	 2.428043	 2.040201	 -1.520197
C	 2.174708	 1.216246	 -2.344623
C	 0.885414	 0.414997	 -2.318980
C	 3.132308	 0.914866	 -3.479228
C	 -0.038119	 0.760192	 -1.154436
H	 0.378664	 0.568661	 -3.270810
H	 1.149904	 -0.641463	 -2.300517
C	 -1.325353	 -0.066085	 -1.162150
H	 -0.278169	 1.818054	 -1.192281
H	 0.493799	 0.606370	 -0.220868
C	 -2.259874	 0.272531	 0.000494
H	 -1.851993	 0.090189	 -2.102509
H	 -1.077296	 -1.125898	 -1.125680
C	 -3.549786	 -0.549746	 -0.000374
H	 -2.509075	 1.331602	 -0.035378
H	 -1.734750	 0.115848	 0.941074
C	 -4.809590	 0.315458	 -0.000369
H	 -3.560515	 -1.202009	 -0.871156
H	 -3.561123	 -1.202955	 0.869711
H	 -4.844746	 0.956611	 -0.876632
H	 -5.706986	 -0.295590	 -0.001609
H	 -4.845960	 0.954827	 0.877144
H	 2.651676	 1.089684	 -4.437377
H	 4.007737	 1.543577	 -3.394490
H	 3.431883	 -0.128825	 -3.454760

15 11 14 18 F
