%nprocshared=1
%mem=2GB
#HF/6-31G* nosymm scf=tight opt=ModRedundant

Mol

0 1
O	 -0.682937	 1.318834	 -0.186099
C	 -0.860635	 0.152188	 -0.042321
C	 -2.173363	 -0.477127	 0.338347
O	 0.083258	 -0.765189	 -0.202595
H	 -2.477673	 -1.180929	 -0.427595
H	 -2.923125	 0.290956	 0.455536
H	 -2.058825	 -1.029004	 1.264191
C	 -0.260069	 -2.134069	 0.000114
C	 -0.879705	 -2.742500	 -1.244277
H	 -0.924462	 -2.211585	 0.847294
H	 0.676692	 -2.615523	 0.241319
H	 -1.059687	 -3.801220	 -1.084750
H	 -1.825009	 -2.268104	 -1.476046
H	 -0.214086	 -2.634270	 -2.093778

8 4 2 1 F
