%nprocshared=4
%mem=2GB
#HF/6-31G* nosymm scf=tight opt=ModRedundant

Mol

0 1
O	 0.035709	 -0.220705	 0.339771
C	 1.122059	 0.121804	 -0.000188
C	 1.497076	 1.502190	 -0.481634
O	 2.172624	 -0.688929	 0.000216
C	 0.323445	 2.476610	 -0.502579
H	 2.297102	 1.863216	 0.158970
H	 1.936118	 1.393346	 -1.469637
C	 0.730504	 3.866547	 -0.994254
H	 -0.100612	 2.548370	 0.494181
H	 -0.462366	 2.077559	 -1.136426
C	 -0.439709	 4.848871	 -1.019615
H	 1.518585	 4.261398	 -0.356213
H	 1.157109	 3.788530	 -1.992248
H	 -0.866518	 4.974946	 -0.028861
H	 -0.124300	 5.826117	 -1.371442
H	 -1.230290	 4.499009	 -1.677049
C	 3.452279	 -0.082609	 0.000533
H	 3.583069	 0.529321	 -0.880332
H	 4.163299	 -0.894027	 0.001117
H	 3.582335	 0.529955	 0.881077

1 2 4 17 F
