%nprocshared=4
%mem=2GB
#HF/cc-pVTZ nosymm scf=tight opt=ModRedundant

Mol

0 1
H	 2.550622	 -0.928661	 1.113216
N	 1.573185	 -0.735769	 1.131069
C	 0.822549	 -1.842726	 0.573366
C	 1.283528	 0.505384	 0.441517
H	 1.047880	 -2.741696	 1.134108
H	 1.073281	 -2.027963	 -0.472789
C	 -0.662525	 -1.544114	 0.670635
H	 1.842895	 1.307910	 0.906719
H	 1.563385	 0.468503	 -0.612968
C	 -0.202150	 0.800920	 0.538960
H	 -0.950418	 -1.512508	 1.725486
H	 -1.223522	 -2.343492	 0.201172
N	 -0.976577	 -0.298712	 -0.000000
H	 -0.430267	 1.697149	 -0.025713
H	 -0.458327	 0.994078	 1.584739
C	 -2.391156	 -0.021003	 -0.000000
H	 -2.853954	 -0.458728	 -0.875714
H	 -2.853954	 -0.458728	 0.875714
H	 -2.614037	 1.049773	 -0.000000

7 13 16 19 F
