%nprocshared=1
%mem=2GB
#HF/6-31G* nosymm scf=tight opt=ModRedundant

Mol

0 1
O	 0.625848	 1.349995	 -0.000749
C	 0.486307	 0.169203	 0.000779
C	 1.608116	 -0.841643	 0.000302
O	 -0.698257	 -0.426125	 0.001050
C	 2.990107	 -0.200498	 -0.000684
H	 1.468623	 -1.481519	 -0.865924
H	 1.469683	 -1.481289	 0.866878
H	 3.129736	 0.423364	 -0.875135
H	 3.757882	 -0.966877	 -0.001197
H	 3.130964	 0.423383	 0.873533
C	 -0.851899	 -1.585754	 -0.810772
C	 -2.274346	 -2.074981	 -0.638694
H	 -0.132506	 -2.331209	 -0.500363
H	 -0.639750	 -1.326887	 -1.839155
H	 -2.472575	 -2.324882	 0.397363
H	 -2.435603	 -2.961899	 -1.242864
H	 -2.982689	 -1.315148	 -0.948791

11 4 2 3 F
