%nprocshared=1
%mem=2GB
#HF/6-31G* nosymm scf=tight 

Mol

0 1
O	 -2.439739	 -0.935931	 -0.423848
C	 -1.921153	 0.064240	 -0.045697
C	 -2.624470	 1.379923	 0.150949
O	 -0.632575	 0.154573	 0.251549
H	 -2.168117	 2.136577	 -0.476876
H	 -3.669540	 1.273223	 -0.098610
H	 -2.519365	 1.700893	 1.180846
C	 0.160891	 -1.019931	 0.106212
C	 1.589627	 -0.672828	 0.480843
H	 0.089836	 -1.367806	 -0.916050
H	 -0.238459	 -1.792301	 0.749618
C	 2.126087	 0.581505	 -0.211442
H	 2.211962	 -1.527064	 0.222167
H	 1.651246	 -0.555991	 1.559643
C	 3.574708	 0.886084	 0.167675
H	 2.053508	 0.454476	 -1.289726
H	 1.497683	 1.428604	 0.043296
H	 3.931221	 1.779616	 -0.334851
H	 4.234155	 0.067284	 -0.106139
H	 3.674356	 1.046616	 1.237431

16 12 9 8 F
2 4 8 10 F
1 2 4 8 F
