%nprocshared=4
%mem=2GB
#HF/6-31G* nosymm scf=tight opt=ModRedundant

Mol

0 1
H	 -3.420663	 1.227371	 -1.044276
O	 -3.452007	 0.283848	 -0.965577
C	 -3.181085	 -0.079926	 0.364119
C	 -1.765924	 0.277073	 0.805136
H	 -3.327791	 -1.152017	 0.410903
H	 -3.905698	 0.375695	 1.036898
C	 -0.677594	 -0.417312	 -0.014550
H	 -1.637766	 1.358238	 0.744969
H	 -1.659588	 0.017670	 1.857098
C	 0.713049	 -0.300499	 0.612862
H	 -0.664106	 0.001142	 -1.016261
H	 -0.935475	 -1.469113	 -0.126825
C	 1.796149	 -1.003011	 -0.210215
H	 0.960333	 0.751765	 0.731220
H	 0.694493	 -0.724459	 1.616116
C	 3.192432	 -0.989892	 0.422538
H	 1.846623	 -0.550162	 -1.199193
H	 1.498060	 -2.037706	 -0.366312
C	 3.825836	 0.397974	 0.536700
H	 3.846066	 -1.622816	 -0.172829
H	 3.144589	 -1.447229	 1.408822
H	 3.875374	 0.885040	 -0.433584
H	 4.838304	 0.329066	 0.922703
H	 3.267460	 1.046027	 1.204088

11 7 4 3 F
