%nprocshared=4
%mem=2GB
#HF/cc-pVTZ nosymm scf=tight opt=ModRedundant

Mol

0 1
O	 2.145524	 2.482854	 1.781159
C	 1.731176	 1.900582	 2.729518
C	 0.448623	 1.094812	 2.689218
C	 2.464076	 1.925776	 4.051806
C	 -0.256596	 1.098932	 1.340338
H	 0.690336	 0.079270	 2.994697
H	 -0.205560	 1.481539	 3.467353
C	 -1.541605	 0.275640	 1.347665
H	 0.420462	 0.718458	 0.584067
H	 -0.476099	 2.122030	 1.057102
C	 -2.258482	 0.271340	 0.000669
H	 -1.314164	 -0.748581	 1.634923
H	 -2.214963	 0.661635	 2.109807
C	 -3.544441	 -0.550271	 -0.000253
H	 -1.586273	 -0.114567	 -0.761777
H	 -2.486958	 1.294664	 -0.286965
C	 -4.804551	 0.308747	 0.000556
H	 -3.553737	 -1.201524	 -0.870151
H	 -3.553831	 -1.203282	 0.868313
H	 -4.842050	 0.949078	 -0.874436
H	 -5.698404	 -0.304480	 -0.000254
H	 -4.842277	 0.947103	 0.876982
H	 2.728039	 0.917822	 4.352471
H	 3.357494	 2.524497	 3.963894
H	 1.824645	 2.335679	 4.825854

15 11 14 18 F
