%nprocshared=1
%mem=2GB
#HF/6-31G* nosymm scf=tight 

Mol

0 1
H	 -3.420663	 1.227371	 -1.044276
O	 -3.452007	 0.283848	 -0.965577
C	 -3.181085	 -0.079926	 0.364119
C	 -1.765924	 0.277073	 0.805136
H	 -3.327791	 -1.152017	 0.410903
H	 -3.905698	 0.375695	 1.036898
C	 -0.938483	 0.954598	 -0.287942
H	 -1.820024	 0.925436	 1.680157
H	 -1.269720	 -0.634454	 1.133953
C	 0.472055	 1.328898	 0.171906
H	 -1.460011	 1.842911	 -0.630899
H	 -0.873062	 0.288648	 -1.146793
C	 1.296207	 2.001242	 -0.929372
H	 0.399807	 1.985833	 1.035408
H	 0.991579	 0.433845	 0.511875
C	 2.746486	 2.315214	 -0.544316
H	 0.800730	 2.920076	 -1.239119
H	 1.304095	 1.352692	 -1.802950
C	 2.898718	 3.364884	 0.558146
H	 3.270360	 2.663527	 -1.431178
H	 3.244565	 1.396853	 -0.239796
H	 2.399110	 4.291023	 0.286488
H	 3.945960	 3.593872	 0.730440
H	 2.480838	 3.027757	 1.500954

20 16 13 17 F
17 13 10 7 F
13 10 7 11 F
11 7 4 3 F
1 2 3 5 F
