%nprocshared=4
%mem=2GB
#HF/cc-pVTZ nosymm scf=tight opt=ModRedundant

Mol

0 1
O	 -2.081319	 -0.951530	 -0.502732
N	 -1.613558	 0.006676	 0.014756
C	 -0.329345	 -0.171618	 0.743966
O	 -2.068523	 1.100482	 -0.024385
C	 0.835904	 0.041968	 -0.213982
H	 -0.346048	 -1.174374	 1.137184
H	 -0.333613	 0.555559	 1.538590
C	 1.561192	 1.353439	 0.076133
H	 1.523968	 -0.790327	 -0.122272
H	 0.459908	 0.043452	 -1.230527
C	 2.728630	 1.595297	 -0.874170
H	 1.923764	 1.346630	 1.099819
H	 0.858624	 2.178322	 0.002829
H	 3.464652	 0.802671	 -0.798597
H	 2.391828	 1.638265	 -1.903943
H	 3.224471	 2.531292	 -0.647859

9 5 3 2 F
