%nprocshared=4
%mem=2GB
#HF/6-31G* nosymm scf=tight opt=ModRedundant

Mol

0 1
O	 -2.042549	 -1.228399	 -0.269030
C	 -1.653912	 -0.146171	 0.050137
C	 -0.332303	 0.024011	 0.778412
C	 -2.438579	 1.106236	 -0.272369
C	 -0.348909	 -0.714329	 2.126170
H	 0.489106	 -0.339915	 0.167489
H	 -0.184252	 1.084820	 0.947790
C	 0.954631	 -0.543103	 2.907513
H	 -0.531998	 -1.774886	 1.962523
H	 -1.182092	 -0.341931	 2.714614
C	 0.937542	 -1.268896	 4.252184
H	 1.785833	 -0.909436	 2.308907
H	 1.137504	 0.516426	 3.070373
H	 0.790183	 -2.337029	 4.120162
H	 0.136101	 -0.900545	 4.885786
H	 1.872494	 -1.127602	 4.785032
H	 -3.277823	 0.863061	 -0.908988
H	 -1.806773	 1.843019	 -0.759671
H	 -2.802853	 1.554979	 0.648059

5 3 2 4 F
