%nprocshared=4
%mem=2GB
#HF/cc-pVTZ nosymm scf=tight opt=ModRedundant

Mol

0 1
H	 -3.341585	 -2.913301	 -4.183500
O	 -3.747183	 -3.752311	 -4.067815
C	 -2.902275	 -4.603898	 -3.339666
C	 -2.804027	 -4.244539	 -1.864575
H	 -3.321773	 -5.595490	 -3.443339
H	 -1.909766	 -4.625810	 -3.785643
C	 -2.143123	 -2.895524	 -1.590327
H	 -3.803022	 -4.255691	 -1.439084
H	 -2.239849	 -5.029340	 -1.366390
C	 -2.032349	 -2.583964	 -0.098518
H	 -2.709968	 -2.111950	 -2.081960
H	 -1.147865	 -2.885752	 -2.031521
C	 -1.311023	 -1.277304	 0.237018
H	 -3.028337	 -2.566104	 0.337274
H	 -1.505452	 -3.401114	 0.386369
C	 -2.041121	 -0.006551	 -0.194127
H	 -1.157075	 -1.239260	 1.311904
H	 -0.318933	 -1.290809	 -0.208773
C	 -3.489218	 0.042606	 0.286507
H	 -2.022185	 0.066287	 -1.279394
H	 -1.518764	 0.869305	 0.178730
C	 -4.219984	 1.311773	 -0.139038
H	 -4.022855	 -0.824300	 -0.093339
H	 -3.510372	 -0.038577	 1.370031
H	 -4.244251	 1.405725	 -1.219696
H	 -5.244345	 1.313233	 0.215630
H	 -3.732090	 2.196311	 0.257073

10 13 16 20 F
