%nprocshared=1
%mem=2GB
#HF/6-31G* nosymm scf=tight 
prop=(read,field)

Mol

0 1
H	 -0.821031	 -1.656025	 -0.000000
O	 -1.037826	 -0.728736	 -0.000000
C	 0.100510	 -0.037071	 0.000000
C	 -0.145614	 1.444592	 0.000000
O	 1.164304	 -0.563915	 0.000000
H	 -0.723762	 1.718025	 -0.875040
H	 0.798373	 1.968080	 -0.000000
H	 -0.723762	 1.718025	 0.875040

@grid.dat /N
