%nprocshared=4
%mem=2GB
#HF/cc-pVTZ nosymm scf=tight opt=ModRedundant

Mol

0 1
O	 1.498337	 1.900420	 0.455678
C	 0.691454	 1.876319	 1.321355
C	 -0.606351	 1.110680	 1.287571
O	 0.830374	 2.536366	 2.459536
C	 -0.824290	 0.329213	 -0.000115
H	 -0.614191	 0.454450	 2.151719
H	 -1.405230	 1.826079	 1.453214
C	 -2.146151	 -0.432825	 -0.000068
H	 -0.000997	 -0.361567	 -0.142539
H	 -0.792695	 1.011639	 -0.841891
C	 -3.366283	 0.483552	 0.000557
H	 -2.189286	 -1.084450	 -0.869996
H	 -2.188867	 -1.085083	 0.869399
C	 -4.687436	 -0.278003	 0.000108
H	 -3.325150	 1.134819	 -0.867957
H	 -3.325087	 1.133730	 0.869885
H	 -4.773783	 -0.912098	 -0.876078
H	 -5.531922	 0.401392	 0.000363
H	 -4.773901	 -0.912898	 0.875703
C	 2.007452	 3.300383	 2.627137
H	 2.882210	 2.669175	 2.576260
H	 1.931762	 3.753609	 3.602177
H	 2.078565	 4.063108	 1.865949

9 5 8 12 F
