%nprocshared=4
%mem=2GB
#HF/cc-pVTZ nosymm scf=tight opt=ModRedundant

Mol

0 1
O	 0.623971	 1.347241	 -0.000777
C	 0.485107	 0.171416	 -0.000134
C	 1.606966	 -0.836201	 0.000174
O	 -0.695554	 -0.422406	 0.000602
C	 2.988788	 -0.202529	 -0.000115
H	 1.465110	 -1.474645	 -0.864821
H	 1.465209	 -1.474077	 0.865596
H	 3.131767	 0.419673	 -0.873407
H	 3.750876	 -0.972315	 0.000098
H	 3.131883	 0.420264	 0.872742
C	 -1.190120	 -0.915991	 -1.236356
C	 -2.538751	 -1.545311	 -0.976282
H	 -0.487732	 -1.633701	 -1.636219
H	 -1.262702	 -0.098068	 -1.939248
H	 -2.453764	 -2.362067	 -0.270549
H	 -2.945732	 -1.933521	 -1.902507
H	 -3.233174	 -0.817701	 -0.575370

11 4 2 3 F
