%nprocshared=4
%mem=2GB
#HF/cc-pVTZ nosymm scf=tight opt=ModRedundant

Mol

0 1
O	 -0.294688	 1.318815	 -0.000872
C	 -0.448732	 0.145721	 -0.000187
C	 -1.780748	 -0.548101	 0.000195
O	 0.550743	 -0.719877	 0.000412
H	 -1.859389	 -1.183260	 -0.872613
H	 -2.570236	 0.185547	 -0.001342
H	 -1.860233	 -1.180337	 0.875064
C	 0.328021	 -1.967088	 -0.627224
H	 -0.483635	 -2.494455	 -0.148552
H	 1.246339	 -2.521336	 -0.521466
H	 0.092456	 -1.830646	 -1.672171

8 4 2 1 F
