%nprocshared=1
%mem=2GB
#HF/6-31G* nosymm scf=tight 
prop=(read,field)

Mol

0 1
H	 -4.031591	 -0.453394	 -0.000094
C	 -2.967484	 -0.296989	 -0.000064
C	 -2.458392	 0.992962	 0.000032
C	 -2.109668	 -1.385604	 -0.000123
H	 -3.124771	 1.836352	 0.000077
C	 -1.090051	 1.193269	 0.000070
H	 -2.506134	 -2.384814	 -0.000198
C	 -0.739585	 -1.187498	 -0.000085
H	 -0.678367	 2.184323	 0.000146
C	 -0.226210	 0.104094	 0.000012
H	 -0.072083	 -2.026999	 -0.000131
C	 1.239356	 0.373854	 0.000060
O	 1.970509	 -0.730691	 0.000018
O	 1.715083	 1.465890	 0.000133
C	 3.377546	 -0.566613	 -0.000065
H	 3.695665	 -0.028948	 -0.881264
H	 3.789527	 -1.563671	 0.000236
H	 3.695743	 -0.028283	 0.880770

@grid.dat /N
