%nprocshared=4
%mem=2GB
#HF/cc-pVTZ nosymm scf=tight opt=ModRedundant

Mol

0 1
H	 -2.149496	 -2.244167	 0.000000
O	 -2.454378	 -1.354528	 0.000000
C	 -1.430628	 -0.482077	 0.000000
C	 -1.457284	 0.534996	 0.943145
C	 -0.381014	 -0.568734	 -0.889956
H	 -2.281962	 0.585131	 1.626097
C	 -0.435994	 1.456217	 0.989284
H	 -0.347742	 -1.350403	 -1.624690
C	 0.641430	 0.368630	 -0.830067
H	 -0.464220	 2.239413	 1.721502
C	 0.625555	 1.384866	 0.103986
C	 1.735729	 0.270423	 -1.765039
H	 1.421680	 2.100426	 0.137632
N	 2.589898	 0.190673	 -2.497650

5 3 2 1 F
