%nprocshared=4
%mem=2GB
#HF/cc-pVTZ nosymm scf=tight opt=ModRedundant

Mol

0 1
H	 -1.752232	 -2.214755	 -0.011938
C	 -1.343852	 -1.221619	 -0.018179
N	 -0.058800	 -1.097635	 -0.261688
C	 -2.148159	 -0.124236	 0.219734
C	 0.449026	 0.119242	 -0.273393
H	 -3.196988	 -0.237571	 0.417076
N	 -1.655094	 1.094230	 0.209506
C	 -0.370318	 1.215445	 -0.035100
C	 1.924033	 0.265863	 -0.538106
H	 0.033214	 2.210441	 -0.046812
C	 2.303117	 -0.091937	 -1.976064
H	 2.202544	 1.293507	 -0.337750
H	 2.477130	 -0.357947	 0.154107
H	 3.363973	 0.058320	 -2.137126
H	 1.761083	 0.527743	 -2.678328
H	 2.073844	 -1.129085	 -2.193562

12 9 5 3 F
