%nprocshared=4
%mem=2GB
#HF/6-31G* nosymm scf=tight opt=ModRedundant

Mol

0 1
O	 -0.566270	 0.026763	 0.535134
C	 0.486307	 0.169203	 0.000779
C	 1.608116	 -0.841643	 0.000302
O	 0.819634	 1.258709	 -0.677069
C	 2.990107	 -0.200498	 -0.000684
H	 1.468623	 -1.481519	 -0.865924
H	 1.469683	 -1.481289	 0.866878
H	 3.129736	 0.423364	 -0.875135
H	 3.757882	 -0.966877	 -0.001197
H	 3.130964	 0.423383	 0.873533
C	 -0.145225	 2.302495	 -0.760484
C	 0.467347	 3.422793	 -1.574117
H	 -0.400173	 2.627567	 0.238973
H	 -1.043024	 1.916579	 -1.223751
H	 1.368380	 3.794609	 -1.099723
H	 -0.237618	 4.243028	 -1.662920
H	 0.721997	 3.079846	 -2.570509

4 2 3 6 F
