%nprocshared=4
%mem=2GB
#HF/cc-pVTZ nosymm scf=tight opt=ModRedundant

Mol

0 1
H	 2.856461	 0.359505	 1.196985
O	 3.552828	 0.179605	 0.593214
C	 3.469514	 -1.144647	 0.136391
C	 2.321911	 -1.380284	 -0.834262
H	 4.409672	 -1.345844	 -0.359192
H	 3.394894	 -1.832007	 0.976878
C	 0.934823	 -1.210335	 -0.218670
H	 2.435038	 -0.701400	 -1.674189
H	 2.419400	 -2.389073	 -1.228268
C	 -0.191383	 -1.486841	 -1.213679
H	 0.835410	 -0.201732	 0.168420
H	 0.833042	 -1.883210	 0.631134
C	 -1.603448	 -1.403410	 -0.631127
H	 -0.106697	 -0.796525	 -2.049454
H	 -0.049278	 -2.481134	 -1.627993
C	 -2.041121	 -0.006551	 -0.194127
H	 -2.302827	 -1.766083	 -1.379368
H	 -1.684251	 -2.085755	 0.212100
C	 -3.489218	 0.042606	 0.286507
H	 -1.917009	 0.683815	 -1.025666
H	 -1.396125	 0.355543	 0.600776
C	 -4.219984	 1.311773	 -0.139038
H	 -4.022855	 -0.824300	 -0.093339
H	 -3.510372	 -0.038577	 1.370031
H	 -4.244251	 1.405725	 -1.219696
H	 -5.244345	 1.313233	 0.215630
H	 -3.732090	 2.196311	 0.257073

20 16 19 22 F
