%nprocshared=4
%mem=2GB
#HF/cc-pVTZ nosymm scf=tight opt=ModRedundant

Mol

0 1
O	 0.052313	 0.710476	 -0.961358
C	 0.485107	 0.171416	 -0.000134
C	 1.606966	 -0.836201	 0.000174
O	 0.031704	 0.387681	 1.222257
C	 2.988788	 -0.202529	 -0.000115
H	 1.465110	 -1.474645	 -0.864821
H	 1.465209	 -1.474077	 0.865596
H	 3.131767	 0.419673	 -0.873407
H	 3.750876	 -0.972315	 0.000098
H	 3.131883	 0.420264	 0.872742
C	 -1.030679	 1.317529	 1.380411
C	 -1.367737	 1.387620	 2.851454
H	 -1.877479	 0.989018	 0.794443
H	 -0.718009	 2.279182	 0.998594
H	 -1.678379	 0.419087	 3.222693
H	 -2.177482	 2.090529	 3.007865
H	 -0.512350	 1.716656	 3.428011

4 2 3 6 F
