%nprocshared=4
%mem=2GB
#HF/cc-pVTZ nosymm scf=tight opt=ModRedundant

Mol

0 1
H	 -2.498963	 -0.741158	 -0.729149
O	 -2.346257	 -0.289210	 0.080372
C	 -1.183935	 0.486039	 -0.009831
C	 0.062853	 -0.375310	 0.027457
H	 -1.178881	 1.094526	 -0.908634
H	 -1.184406	 1.155156	 0.838676
O	 0.976343	 0.215592	 0.892223
H	 0.485624	 -0.461698	 -0.974890
H	 -0.197926	 -1.378104	 0.359080
C	 2.164547	 -0.487877	 1.048828
H	 2.692948	 -0.590899	 0.103602
H	 2.787630	 0.063804	 1.737379
H	 1.987615	 -1.481270	 1.454273

8 4 3 5 F
