%nprocshared=1
%mem=2GB
#HF/6-31G* nosymm scf=tight opt=ModRedundant

Mol

0 1
H	 -3.261111	 -0.295142	 1.469456
C	 -3.306842	 -0.277400	 0.373456
C	 -2.660244	 0.921717	 -0.272021
O	 -3.838538	 -1.161155	 -0.216482
C	 -3.197054	 2.249056	 0.281389
H	 -1.586915	 0.841679	 -0.144480
H	 -2.874870	 0.865453	 -1.338523
C	 -2.828535	 2.492890	 1.747007
H	 -2.806912	 3.058680	 -0.328186
H	 -4.279405	 2.277485	 0.165349
C	 -3.360130	 3.824196	 2.281652
H	 -1.745795	 2.466073	 1.850932
H	 -3.209964	 1.681074	 2.363454
C	 -2.976105	 4.072181	 3.742808
H	 -2.984465	 4.630007	 1.656130
H	 -4.445082	 3.843178	 2.187294
C	 -3.556198	 5.355896	 4.347489
H	 -1.891020	 4.092272	 3.831584
H	 -3.313113	 3.227008	 4.339315
C	 -3.022025	 6.648275	 3.727782
H	 -3.335798	 5.363581	 5.412061
H	 -4.640808	 5.335714	 4.263028
H	 -1.937334	 6.688437	 3.783456
H	 -3.303649	 6.745605	 2.684619
H	 -3.411389	 7.516005	 4.251648

6 3 2 4 F
