%nprocshared=1
%mem=2GB
#HF/6-31G* nosymm scf=tight 

Mol

0 1
H	 -2.646374	 -0.642757	 1.268656
C	 -2.083525	 -0.384536	 0.393091
O	 -0.807605	 -0.127164	 0.768327
F	 -2.118945	 -1.383102	 -0.486752
F	 -2.621877	 0.670592	 -0.209486
C	 -0.536087	 1.109115	 1.325624
C	 0.717853	 1.639186	 0.642384
Cl	 -0.283608	 0.971983	 3.073383
H	 -1.332615	 1.814518	 1.165234
F	 1.031921	 2.826504	 1.115436
F	 0.477948	 1.763064	 -0.647786
F	 1.742995	 0.837596	 0.798951

10 7 6 9 F
9 6 3 2 F
