%nprocshared=4
%mem=2GB
#HF/cc-pVTZ nosymm scf=tight opt=ModRedundant

Mol

0 1
H	 -0.905682	 6.440587	 3.527521
C	 -1.771770	 5.790077	 3.487568
C	 -1.597900	 4.704980	 2.430375
H	 -1.904544	 5.355267	 4.472214
H	 -2.639688	 6.407230	 3.278668
C	 -2.805252	 3.774531	 2.337978
H	 -0.710722	 4.124591	 2.656213
H	 -1.429981	 5.170879	 1.462096
C	 -2.662252	 2.681753	 1.283334
H	 -2.981911	 3.313374	 3.301801
H	 -3.687787	 4.362149	 2.102137
C	 -1.671577	 1.585159	 1.636220
H	 -3.618681	 2.187490	 1.132622
H	 -2.394748	 3.104338	 0.319290
C	 -1.180025	 0.697761	 0.509157
O	 -1.306855	 1.409612	 2.754002
C	 -2.285431	 -0.137488	 -0.145671
H	 -0.419770	 0.050094	 0.924343
H	 -0.710307	 1.326570	 -0.242615
C	 -3.646545	 0.082747	 0.508954
H	 -2.348635	 0.118247	 -1.199806
H	 -2.034895	 -1.192387	 -0.096473
C	 -4.757412	 -0.737227	 -0.138149
H	 -3.900211	 1.137405	 0.459735
H	 -3.580878	 -0.166775	 1.564416
H	 -4.867876	 -0.486707	 -1.187777
H	 -4.549650	 -1.800049	 -0.072540
H	 -5.709585	 -0.556397	 0.346597

12 15 17 21 F
