%nprocshared=4
%mem=2GB
#HF/cc-pVTZ nosymm scf=tight opt=ModRedundant

Mol

0 1
O	 1.847685	 1.294399	 -0.000190
C	 1.704209	 0.119472	 -0.000093
C	 0.380337	 -0.600947	 -0.000234
O	 2.715427	 -0.733672	 0.000025
C	 -0.824290	 0.329213	 -0.000115
H	 0.371455	 -1.255476	 -0.865660
H	 0.371410	 -1.255787	 0.864952
C	 -1.036871	 1.003948	 -1.351988
H	 -0.695251	 1.080852	 0.770379
H	 -1.709748	 -0.232963	 0.274134
C	 -2.241274	 1.940699	 -1.371545
H	 -0.144366	 1.563971	 -1.622282
H	 -1.162414	 0.244633	 -2.120699
C	 -2.453497	 2.615464	 -2.722494
H	 -2.116495	 2.700085	 -0.604785
H	 -3.133535	 1.382057	 -1.103311
H	 -1.590683	 3.210528	 -3.003001
H	 -3.315083	 3.272711	 -2.701740
H	 -2.616160	 1.882099	 -3.505407
C	 4.020999	 -0.192556	 0.000019
H	 4.182809	 0.412891	 -0.879449
H	 4.692590	 -1.035653	 0.000152
H	 4.182726	 0.413087	 0.879368

9 5 3 6 F
