%nprocshared=4
%mem=2GB
#HF/cc-pVTZ nosymm scf=tight opt=ModRedundant

Mol

0 1
O	 1.582539	 1.507857	 -0.542092
C	 0.781622	 1.719742	 -1.387478
C	 -0.186655	 0.710420	 -1.949037
O	 0.630629	 2.901797	 -1.962250
C	 -0.901443	 -0.111416	 -0.886027
H	 -0.893806	 1.253794	 -2.567205
H	 0.371161	 0.074337	 -2.628508
C	 -1.584829	 0.762640	 0.161364
H	 -0.188557	 -0.772168	 -0.405952
H	 -1.632571	 -0.754201	 -1.363070
C	 -0.603500	 1.412289	 1.132661
H	 -2.162795	 1.538989	 -0.335113
H	 -2.299716	 0.164764	 0.722362
C	 -1.286407	 2.286261	 2.179190
H	 0.110415	 2.010467	 0.573496
H	 -0.026817	 0.637728	 1.630309
H	 -1.843980	 3.092022	 1.713255
H	 -0.562254	 2.731674	 2.851459
H	 -1.982007	 1.708355	 2.778688
C	 1.774850	 3.725117	 -2.063383
H	 2.168391	 3.953019	 -1.083894
H	 1.449161	 4.628457	 -2.553025
H	 2.542901	 3.240436	 -2.647673

1 2 4 20 F
