%nprocshared=4
%mem=2GB
#HF/cc-pVTZ nosymm scf=tight opt=ModRedundant

Mol

0 1
O	 -0.408517	 0.197928	 0.776127
C	 0.485107	 0.171416	 -0.000134
C	 1.606966	 -0.836201	 0.000174
O	 0.617633	 1.039365	 -0.987902
C	 2.988788	 -0.202529	 -0.000115
H	 1.465110	 -1.474645	 -0.864821
H	 1.465209	 -1.474077	 0.865596
H	 3.131767	 0.419673	 -0.873407
H	 3.750876	 -0.972315	 0.000098
H	 3.131883	 0.420264	 0.872742
C	 -0.369182	 2.053262	 -1.116348
C	 0.001481	 2.910502	 -2.303881
H	 -0.401665	 2.631852	 -0.203920
H	 -1.336688	 1.589671	 -1.248027
H	 0.972169	 3.368504	 -2.161158
H	 -0.733276	 3.696814	 -2.430678
H	 0.031762	 2.320428	 -3.211222

4 2 3 6 F
