%nprocshared=4
%mem=2GB
#HF/cc-pVTZ nosymm scf=tight opt=ModRedundant

Mol

0 1
H	 2.302804	 -0.033621	 5.940622
C	 1.370976	 0.513878	 5.858116
C	 1.008164	 0.767847	 4.398941
H	 0.601092	 -0.066865	 6.354334
H	 1.485337	 1.445541	 6.402841
C	 -0.295591	 1.547680	 4.243843
H	 0.925901	 -0.180586	 3.880631
H	 1.814046	 1.318636	 3.919349
C	 -0.681044	 1.822248	 2.793696
H	 -1.100594	 1.007346	 4.726376
H	 -0.201645	 2.500096	 4.757516
C	 -1.158526	 0.603377	 2.022431
H	 -1.496556	 2.540216	 2.758648
H	 0.140379	 2.284011	 2.253737
C	 -1.180025	 0.697761	 0.509157
O	 -1.522795	 -0.382947	 2.577181
C	 -2.285431	 -0.137488	 -0.145671
H	 -0.209921	 0.373472	 0.157623
H	 -1.304974	 1.741273	 0.232271
C	 -3.646545	 0.082747	 0.508954
H	 -2.348635	 0.118247	 -1.199806
H	 -2.034895	 -1.192387	 -0.096473
C	 -4.757412	 -0.737227	 -0.138149
H	 -3.900211	 1.137405	 0.459735
H	 -3.580878	 -0.166775	 1.564416
H	 -4.867876	 -0.486707	 -1.187777
H	 -4.549650	 -1.800049	 -0.072540
H	 -5.709585	 -0.556397	 0.346597

16 12 15 17 F
