%nprocshared=4
%mem=2GB
#HF/6-31G* nosymm scf=tight opt=ModRedundant

Mol

0 1
H	 -3.420663	 1.227371	 -1.044276
O	 -3.452007	 0.283848	 -0.965577
C	 -3.181085	 -0.079926	 0.364119
C	 -1.765924	 0.277073	 0.805136
H	 -3.327791	 -1.152017	 0.410903
H	 -3.905698	 0.375695	 1.036898
C	 -0.677594	 -0.417312	 -0.014550
H	 -1.637766	 1.358238	 0.744969
H	 -1.659588	 0.017670	 1.857098
C	 0.738335	 -0.034840	 0.421385
H	 -0.814977	 -0.178223	 -1.064632
H	 -0.802730	 -1.495410	 0.071702
C	 1.822265	 -0.738362	 -0.399735
H	 0.853533	 1.043532	 0.342250
H	 0.871597	 -0.279636	 1.474438
C	 1.369715	 -1.215628	 -1.784499
H	 2.206340	 -1.587120	 0.163995
H	 2.660043	 -0.055911	 -0.527038
C	 0.314655	 -2.323213	 -1.761950
H	 2.241002	 -1.575966	 -2.326076
H	 0.990723	 -0.367374	 -2.351096
H	 0.661365	 -3.180498	 -1.190992
H	 0.093425	 -2.665411	 -2.768328
H	 -0.618021	 -1.987302	 -1.320994

17 13 10 7 F
