%nprocshared=4
%mem=2GB
#HF/cc-pVTZ nosymm scf=tight opt=ModRedundant

Mol

0 1
O	 -0.406316	 0.104456	 2.438929
C	 -0.846966	 0.612872	 1.465048
C	 -1.705041	 1.846597	 1.455975
O	 -0.637375	 0.157174	 0.243149
H	 -2.660144	 1.621661	 0.998917
H	 -1.849763	 2.193395	 2.466135
H	 -1.229463	 2.616125	 0.861651
C	 0.162530	 -1.009518	 0.097799
C	 1.587210	 -0.664190	 0.477086
H	 0.096803	 -1.356267	 -0.924704
H	 -0.233803	 -1.785900	 0.736810
C	 1.707065	 0.259088	 1.686614
H	 2.046397	 -0.192359	 -0.387356
H	 2.135509	 -1.583664	 0.658119
C	 3.153982	 0.606841	 2.019953
H	 1.151324	 1.172892	 1.493712
H	 1.240154	 -0.210187	 2.544879
H	 3.209878	 1.265578	 2.878631
H	 3.640433	 1.105901	 1.188269
H	 3.727381	 -0.284967	 2.249971

12 9 8 10 F
