%nprocshared=4
%mem=2GB
#HF/cc-pVTZ nosymm scf=tight opt=ModRedundant

Mol

0 1
H	 1.128311	 0.207724	 1.465118
C	 1.134565	 0.093781	 0.372499
C	 0.062554	 0.862911	 -0.350953
O	 1.948932	 -0.587720	 -0.146651
C	 -1.315255	 0.203214	 -0.236686
H	 0.361574	 0.981950	 -1.384350
H	 0.025273	 1.850248	 0.103857
C	 -1.409519	 -1.135334	 -0.963358
H	 -2.055919	 0.885238	 -0.637726
H	 -1.564227	 0.069157	 0.812356
H	 -1.201605	 -1.018274	 -2.021009
H	 -2.401666	 -1.558716	 -0.863185
H	 -0.701930	 -1.856601	 -0.569497

6 3 2 4 F
