%nprocshared=4
%mem=2GB
#HF/cc-pVTZ nosymm scf=tight opt=ModRedundant

Mol

0 1
H	 1.372921	 -2.786359	 -1.368619
C	 1.284351	 -1.716370	 -1.213493
C	 0.191197	 -1.421130	 -0.195479
H	 1.049461	 -1.249478	 -2.162049
H	 2.252454	 -1.351371	 -0.893672
N	 0.000297	 0.000045	 0.046090
H	 -0.735881	 -1.831082	 -0.571753
H	 0.399571	 -1.951772	 0.737757
C	 -1.359159	 0.315706	 0.454404
C	 0.993924	 0.546662	 0.956276
C	 -2.416729	 -0.286720	 -0.460525
H	 -1.478729	 1.390261	 0.442008
H	 -1.539692	 0.003361	 1.486761
C	 1.267932	 2.026983	 0.728222
H	 1.920912	 0.008781	 0.813322
H	 0.704490	 0.378763	 1.997405
H	 -2.285276	 0.073129	 -1.473515
H	 -2.371743	 -1.368476	 -0.483209
H	 -3.408658	 -0.007405	 -0.121593
H	 1.621664	 2.191601	 -0.282067
H	 0.383977	 2.635255	 0.874527
H	 2.025589	 2.378868	 1.420281

3 6 9 11 F
