%nprocshared=1
%mem=2GB
#HF/6-31G* nosymm scf=tight opt=ModRedundant

Mol

0 1
H	 -3.892951	 0.981613	 -0.358725
C	 -3.196921	 0.361773	 0.172313
C	 -2.076860	 -0.007332	 -0.404944
H	 -3.439953	 0.057760	 1.173024
O	 -2.057451	 -0.875593	 -1.450223
H	 -1.115407	 0.367201	 -0.100761
C	 -0.830301	 -1.349467	 -1.887710
C	 -0.392992	 -2.570724	 -1.110803
H	 -0.048411	 -0.602238	 -1.810300
H	 -0.938285	 -1.636899	 -2.923185
F	 0.763418	 -3.006547	 -1.588905
F	 -0.220541	 -2.300197	 0.172515
F	 -1.265514	 -3.553086	 -1.200590

6 3 2 1 F
