%nprocshared=1
%mem=2GB
#HF/6-31G* nosymm scf=tight 

Mol

0 1
H	 0.995736	 -0.112377	 -4.266171
O	 1.937824	 -0.081919	 -4.184840
C	 2.322248	 1.127608	 -3.582083
C	 2.004025	 1.184476	 -2.092040
H	 3.391761	 1.203550	 -3.730570
H	 1.863955	 1.971914	 -4.095791
C	 0.507979	 1.132090	 -1.772710
H	 2.511496	 0.359215	 -1.599309
H	 2.427749	 2.103133	 -1.689680
C	 0.219067	 1.245684	 -0.273228
H	 0.094141	 0.202116	 -2.152514
H	 -0.002682	 1.939966	 -2.297021
C	 -1.268691	 1.284465	 0.094756
H	 0.696998	 0.417660	 0.247161
H	 0.690278	 2.151556	 0.102347
C	 -2.037799	 -0.007733	 -0.193645
H	 -1.352420	 1.508119	 1.156257
H	 -1.746401	 2.112617	 -0.426583
C	 -3.489788	 0.042957	 0.286558
H	 -1.530268	 -0.842596	 0.287528
H	 -2.027980	 -0.219032	 -1.260209
C	 -4.216917	 1.317354	 -0.141063
H	 -4.025645	 -0.823308	 -0.095450
H	 -3.513059	 -0.038752	 1.371301
H	 -4.239342	 1.411634	 -1.223113
H	 -5.243387	 1.322503	 0.212445
H	 -3.726170	 2.201406	 0.256408

14 10 7 4 F
14 10 13 16 F
10 7 4 8 F
8 4 3 2 F
10 13 16 20 F
4 3 2 1 F
