%nprocshared=4
%mem=2GB
#HF/cc-pVTZ nosymm scf=tight opt=ModRedundant

Mol

0 1
H	 -3.268214	 -0.875720	 0.463107
C	 -2.806015	 0.000007	 0.024886
N	 -1.391133	 0.000016	 0.301321
H	 -3.029448	 0.000055	 -1.045738
H	 -3.268126	 0.875758	 0.463150
C	 -0.609820	 0.457753	 -0.827219
C	 -0.920909	 -1.287518	 0.764653
H	 -0.737647	 -0.198451	 -1.693191
H	 -0.951264	 1.445760	 -1.112427
C	 0.863207	 0.521710	 -0.469291
H	 -1.489452	 -1.573631	 1.641573
H	 -1.069939	 -2.062695	 0.007197
C	 0.552118	 -1.223561	 1.122581
H	 1.431750	 0.807823	 -1.346212
H	 1.012237	 1.296887	 0.288165
N	 1.333431	 -0.765824	 -0.005959
H	 0.893562	 -2.211568	 1.407789
H	 0.679945	 -0.567357	 1.988553
C	 2.748313	 -0.765815	 0.270476
H	 3.298223	 -0.477451	 -0.616659
H	 3.069501	 -1.760449	 0.553502
H	 3.023432	 -0.079710	 1.076532

6 3 2 4 F
