%nprocshared=4
%mem=2GB
#HF/cc-pVTZ nosymm scf=tight opt=ModRedundant

Mol

0 1
O	 0.803538	 -3.548001	 -3.983903
C	 0.778360	 -2.361136	 -3.937525
C	 0.538287	 -1.634719	 -2.628812
C	 1.001829	 -1.515646	 -5.168775
C	 1.841669	 -1.487757	 -1.833551
H	 -0.172741	 -2.216969	 -2.056504
H	 0.107421	 -0.656657	 -2.814860
C	 1.630207	 -0.772146	 -0.501001
H	 2.254326	 -2.475663	 -1.672351
H	 2.570332	 -0.936221	 -2.422751
C	 2.907848	 -0.545876	 0.309149
H	 0.920674	 -1.337092	 0.098481
H	 1.166960	 0.191926	 -0.692236
C	 3.373802	 0.906639	 0.372125
H	 3.699140	 -1.146831	 -0.127906
H	 2.764321	 -0.923458	 1.318191
H	 3.519798	 1.311927	 -0.623875
H	 4.316899	 0.983758	 0.900700
H	 2.661122	 1.540651	 0.885346
H	 0.078943	 -1.003817	 -5.422370
H	 1.308141	 -2.137025	 -5.996199
H	 1.749082	 -0.753218	 -4.979287

12 8 11 15 F
