%nprocshared=4
%mem=2GB
#HF/cc-pVTZ nosymm scf=tight opt=ModRedundant

Mol

0 1
H	 -1.088256	 -1.364742	 0.152233
O	 -1.432053	 -0.565244	 -0.200812
C	 -0.727158	 0.534527	 0.310686
C	 0.680222	 0.664433	 -0.252229
H	 -1.306802	 1.408001	 0.044211
H	 -0.690821	 0.490158	 1.397609
C	 1.069374	 -0.457932	 -1.209781
H	 0.764757	 1.621747	 -0.755850
H	 1.374716	 0.683426	 0.583215
H	 0.433623	 -0.470283	 -2.088298
H	 2.088997	 -0.337282	 -1.555271
H	 0.997586	 -1.428510	 -0.728345

8 4 3 2 F
