%nprocshared=4
%mem=2GB
#HF/cc-pVTZ nosymm scf=tight opt=ModRedundant

Mol

0 1
H	 -1.835082	 1.385983	 0.000069
C	 -1.300516	 0.441153	 -0.000028
O	 -0.006604	 0.654344	 -0.000106
O	 -1.828920	 -0.612308	 0.000113
C	 0.852093	 -0.482521	 -0.000161
C	 2.277246	 0.016082	 0.032022
H	 0.654479	 -1.069404	 -0.885867
H	 0.623294	 -1.093076	 0.861719
H	 2.490953	 0.628820	 -0.834495
H	 2.958071	 -0.826729	 0.032765
H	 2.459607	 0.605056	 0.921867

7 5 3 2 F
