%nprocshared=4
%mem=2GB
#HF/cc-pVTZ nosymm scf=tight opt=ModRedundant

Mol

0 1
H	 2.614283	 2.028610	 0.296620
O	 3.358864	 1.662087	 -0.142800
C	 3.565468	 0.338079	 0.273842
C	 3.729031	 -0.641802	 -0.878445
H	 4.469638	 0.352867	 0.867339
H	 2.756849	 0.015176	 0.926774
C	 2.479064	 -0.812510	 -1.738846
H	 4.557262	 -0.311209	 -1.498042
H	 4.012179	 -1.604849	 -0.460397
C	 2.670572	 -1.827657	 -2.864740
H	 2.200622	 0.147228	 -2.161191
H	 1.649341	 -1.130169	 -1.109609
C	 1.426162	 -2.093462	 -3.713885
H	 3.481014	 -1.496726	 -3.509641
H	 2.996297	 -2.768319	 -2.429394
C	 0.960318	 -0.913740	 -4.565347
H	 1.635172	 -2.932712	 -4.371533
H	 0.612390	 -2.413485	 -3.066957
C	 -0.221989	 -1.258245	 -5.467497
H	 1.788638	 -0.566192	 -5.178996
H	 0.682807	 -0.079508	 -3.928128
C	 -0.692039	 -0.081572	 -6.316252
H	 0.051936	 -2.084309	 -6.118006
H	 -1.047553	 -1.613686	 -4.856622
H	 0.102372	 0.276814	 -6.962555
H	 -1.529287	 -0.360612	 -6.945744
H	 -1.009203	 0.748599	 -5.693697

4 3 2 1 F
