%nprocshared=4
%mem=2GB
#HF/cc-pVTZ nosymm scf=tight opt=ModRedundant

Mol

0 1
O	 0.378399	 -4.252083	 -3.116795
C	 0.576404	 -3.117388	 -3.407816
C	 0.446409	 -2.012082	 -2.378522
C	 0.984695	 -2.718131	 -4.805908
C	 1.734721	 -1.869236	 -1.558345
H	 -0.375146	 -2.270293	 -1.722409
H	 0.212305	 -1.070902	 -2.864569
C	 1.630207	 -0.772146	 -0.501001
H	 1.949686	 -2.823731	 -1.094709
H	 2.568202	 -1.647895	 -2.220626
C	 2.907848	 -0.545876	 0.309149
H	 0.812733	 -1.006443	 0.176362
H	 1.361797	 0.159986	 -0.990582
C	 3.373802	 0.906639	 0.372125
H	 3.699140	 -1.146831	 -0.127906
H	 2.764321	 -0.923458	 1.318191
H	 3.519798	 1.311927	 -0.623875
H	 4.316899	 0.983758	 0.900700
H	 2.661122	 1.540651	 0.885346
H	 0.181230	 -2.149839	 -5.263605
H	 1.188021	 -3.596337	 -5.399188
H	 1.857578	 -2.075442	 -4.781101

12 8 11 15 F
