%nprocshared=4
%mem=2GB
#HF/cc-pVTZ nosymm scf=tight opt=ModRedundant

Mol

0 1
H	 -0.319138	 0.002557	 -2.345276
C	 0.101808	 0.890907	 -1.854890
C	 0.062554	 0.862911	 -0.350953
O	 0.546652	 1.771306	 -2.506170
C	 -1.339253	 0.577611	 0.196911
H	 0.451169	 1.801924	 0.021509
H	 0.738018	 0.070945	 -0.035337
C	 -1.813142	 -0.849710	 -0.061612
H	 -2.032833	 1.276441	 -0.256032
H	 -1.357249	 0.782269	 1.263793
H	 -1.839268	 -1.063526	 -1.124230
H	 -2.810118	 -1.001930	 0.334000
H	 -1.159274	 -1.579980	 0.402282

6 3 5 9 F
