%nprocshared=1
%mem=2GB
#HF/6-31G* nosymm scf=tight 
prop=(read,field)

Mol

0 1
H	 -3.042718	 -0.665949	 0.004336
O	 -2.245174	 -1.176263	 0.000805
C	 -1.162299	 -0.365424	 0.001020
C	 -1.266788	 1.013848	 0.005576
C	 0.086404	 -0.974940	 -0.006793
H	 -2.233964	 1.487696	 0.008897
C	 -0.108119	 1.777647	 0.002447
H	 0.130604	 -2.048779	 -0.012542
C	 1.241239	 -0.212402	 -0.008586
H	 -0.185695	 2.850502	 0.003570
C	 1.135259	 1.178543	 -0.005313
C	 2.599619	 -0.873958	 0.007162
H	 2.024258	 1.784337	 -0.010190
H	 3.280298	 -0.385965	 -0.682278
H	 2.533657	 -1.919630	 -0.268663
H	 3.042933	 -0.819470	 0.997542

@grid.dat /N
