%nprocshared=4
%mem=2GB
#HF/cc-pVTZ nosymm scf=tight opt=ModRedundant

Mol

0 1
O	 -4.741559	 3.677983	 3.374923
C	 -3.562142	 3.759984	 3.486103
C	 -2.630085	 2.634875	 3.084568
C	 -2.907686	 5.004973	 4.041002
C	 -2.930863	 2.021940	 1.724174
H	 -1.614819	 3.023858	 3.116108
H	 -2.673335	 1.879345	 3.865793
C	 -4.426400	 1.959668	 1.426508
H	 -2.504785	 1.026099	 1.680916
H	 -2.425885	 2.596396	 0.955974
C	 -4.741651	 1.346723	 0.065169
H	 -4.926653	 1.384135	 2.202254
H	 -4.847304	 2.961608	 1.473597
C	 -4.120294	 -0.032092	 -0.138597
H	 -4.393903	 2.015680	 -0.718209
H	 -5.819917	 1.274994	 -0.054522
C	 -2.616053	 0.018754	 -0.384495
H	 -4.321526	 -0.648929	 0.733157
H	 -4.605367	 -0.524018	 -0.977425
H	 -2.097984	 0.474494	 0.452730
H	 -2.206807	 -0.975149	 -0.524836
H	 -2.383940	 0.600094	 -1.270616
H	 -2.221465	 5.423139	 3.312795
H	 -3.662109	 5.735040	 4.290482
H	 -2.329392	 4.760820	 4.925313

9 5 3 6 F
