%nprocshared=1
%mem=2GB
#HF/6-31G* nosymm scf=tight 

Mol

0 1
O	 1.214711	 1.306902	 -0.000018
C	 1.122059	 0.121804	 -0.000188
C	 -0.170150	 -0.657997	 -0.000612
O	 2.172624	 -0.688929	 0.000216
C	 -1.412532	 0.227344	 -0.000452
H	 -0.153702	 -1.313099	 -0.867402
H	 -0.153924	 -1.313811	 0.865644
C	 -1.650165	 0.895932	 -1.355401
H	 -1.312974	 0.984452	 0.771157
H	 -2.277577	 -0.369120	 0.272366
C	 -2.893741	 1.783874	 -1.364486
H	 -0.780161	 1.491625	 -1.624322
H	 -1.746603	 0.132967	 -2.125242
H	 -2.812907	 2.578284	 -0.628257
H	 -3.039114	 2.245830	 -2.335949
H	 -3.786310	 1.209812	 -1.133373
C	 3.452279	 -0.082609	 0.000533
H	 3.583069	 0.529321	 -0.880332
H	 4.163299	 -0.894027	 0.001117
H	 3.582335	 0.529955	 0.881077

9 5 8 12 F
1 2 3 6 F
1 2 4 17 F
