%nprocshared=4
%mem=2GB
#HF/cc-pVTZ nosymm scf=tight opt=ModRedundant

Mol

0 1
H	 0.559871	 -3.346639	 -0.734483
O	 0.921754	 -2.606501	 -0.270875
C	 0.116995	 -1.562917	 -0.451782
C	 0.626018	 -0.337582	 0.258241
O	 -0.869001	 -1.635093	 -1.100198
C	 -0.267326	 0.883135	 0.076490
H	 0.741926	 -0.606795	 1.301289
H	 1.628560	 -0.149021	 -0.112955
C	 -1.726822	 0.642622	 0.463839
H	 -0.210803	 1.217591	 -0.953497
H	 0.129920	 1.693110	 0.675679
C	 -2.517868	 1.899650	 0.821844
H	 -1.741913	 -0.029191	 1.316889
H	 -2.233819	 0.116492	 -0.342130
C	 -3.932508	 1.588939	 1.300097
H	 -1.987446	 2.445628	 1.597470
H	 -2.574726	 2.563418	 -0.034973
H	 -4.470748	 2.496066	 1.549298
H	 -3.917253	 0.959553	 2.183465
H	 -4.498508	 1.068426	 0.534678

12 9 6 10 F
