%nprocshared=4
%mem=2GB
#HF/cc-pVTZ nosymm scf=tight opt=ModRedundant

Mol

0 1
H	 5.269878	 0.195679	 1.068175
C	 4.673900	 -0.208485	 0.258034
C	 3.190199	 -0.204714	 0.610086
H	 4.865136	 0.391893	 -0.624684
H	 5.027838	 -1.214511	 0.056939
C	 2.319208	 -0.778154	 -0.505491
H	 2.876954	 0.809861	 0.827925
H	 3.035335	 -0.782733	 1.518235
C	 1.599213	 0.282308	 -1.332482
H	 2.927424	 -1.385863	 -1.163969
H	 1.572259	 -1.435048	 -0.069212
C	 2.498522	 1.082773	 -2.259297
H	 0.853829	 -0.189142	 -1.968015
H	 1.049633	 0.967040	 -0.693246
C	 1.954084	 2.387921	 -2.806604
O	 3.580718	 0.697376	 -2.565228
C	 0.725075	 2.215331	 -3.705555
H	 2.756171	 2.859370	 -3.358176
H	 1.700081	 3.031876	 -1.968748
C	 0.260517	 3.534881	 -4.316000
H	 0.961271	 1.514969	 -4.501984
H	 -0.092347	 1.778892	 -3.140451
C	 -0.957828	 3.376147	 -5.219087
H	 1.076267	 3.972933	 -4.883216
H	 0.030911	 4.236920	 -3.519133
H	 -0.748445	 2.703361	 -6.043829
H	 -1.802813	 2.973195	 -4.670734
H	 -1.260164	 4.328585	 -5.638333

10 6 3 2 F
