%nprocshared=4
%mem=2GB
#HF/cc-pVTZ nosymm scf=tight opt=ModRedundant

Mol

0 1
H	 2.687161	 -1.597140	 0.887019
O	 3.386771	 -1.514187	 0.266137
C	 3.088248	 -2.234026	 -0.900906
C	 2.009447	 -1.584590	 -1.754784
H	 4.011980	 -2.284183	 -1.461426
H	 2.805056	 -3.255596	 -0.654639
C	 0.632289	 -1.537624	 -1.096698
H	 2.328538	 -0.577923	 -2.007690
H	 1.943389	 -2.138729	 -2.688039
C	 -0.431388	 -0.909196	 -1.995867
H	 0.697059	 -0.979024	 -0.168919
H	 0.324558	 -2.548063	 -0.832875
C	 -1.846837	 -0.903228	 -1.415588
H	 -0.138217	 0.109668	 -2.237100
H	 -0.449207	 -1.449240	 -2.938471
C	 -2.041121	 -0.006551	 -0.194127
H	 -2.532862	 -0.580139	 -2.193734
H	 -2.135335	 -1.921323	 -1.163784
C	 -3.489218	 0.042606	 0.286507
H	 -1.709821	 1.001519	 -0.433925
H	 -1.412543	 -0.347029	 0.623166
C	 -4.219984	 1.311773	 -0.139038
H	 -4.022855	 -0.824300	 -0.093339
H	 -3.510372	 -0.038577	 1.370031
H	 -4.244251	 1.405725	 -1.219696
H	 -5.244345	 1.313233	 0.215630
H	 -3.732090	 2.196311	 0.257073

20 16 19 22 F
