%nprocshared=1
%mem=2GB
#HF/6-31G* nosymm scf=tight 

Mol

0 1
H	 -2.521692	 1.256815	 -1.980505
C	 -1.798753	 0.601867	 -1.534340
C	 -2.076860	 -0.007332	 -0.404944
H	 -0.857112	 0.462089	 -2.031013
O	 -1.180634	 -0.819263	 0.215062
H	 -3.016544	 0.113608	 0.104528
C	 0.051604	 -1.018856	 -0.387932
C	 1.043764	 0.054862	 -0.001873
H	 -0.017620	 -1.041351	 -1.469781
H	 0.437898	 -1.966374	 -0.042284
F	 2.212596	 -0.199467	 -0.571921
F	 0.652529	 1.252447	 -0.405055
F	 1.230877	 0.110694	 1.300533

11 8 7 9 F
3 5 7 9 F
6 3 2 1 F
