%nprocshared=4
%mem=2GB
#HF/cc-pVTZ nosymm scf=tight opt=ModRedundant

Mol

0 1
H	 1.626518	 -2.696030	 -1.607509
O	 1.563561	 -2.215016	 -0.796116
C	 0.777834	 -1.159875	 -0.992945
C	 0.626018	 -0.337582	 0.258241
O	 0.280009	 -0.934352	 -2.041350
C	 -0.267326	 0.883135	 0.076490
H	 0.254247	 -1.004544	 1.026880
H	 1.624565	 -0.049927	 0.572237
C	 -1.726822	 0.642622	 0.463839
H	 -0.210803	 1.217591	 -0.953497
H	 0.129920	 1.693110	 0.675679
C	 -2.480891	 -0.340606	 -0.429852
H	 -2.243098	 1.597649	 0.438609
H	 -1.776542	 0.301208	 1.495542
C	 -3.955933	 -0.460128	 -0.060472
H	 -2.393755	 -0.020485	 -1.464726
H	 -2.024244	 -1.323637	 -0.374360
H	 -4.467673	 -1.160944	 -0.709827
H	 -4.458917	 0.497287	 -0.144505
H	 -4.076458	 -0.806900	 0.960497

7 4 6 10 F
