%nprocshared=4
%mem=2GB
#HF/cc-pVTZ nosymm scf=tight opt=ModRedundant

Mol

0 1
H	 -1.307175	 3.768948	 6.229076
C	 -1.680545	 2.768697	 6.042102
C	 -1.802279	 2.496306	 4.546673
H	 -0.997859	 2.067954	 6.510199
H	 -2.641324	 2.676110	 6.538219
C	 -2.336487	 1.097930	 4.244786
H	 -0.831747	 2.620949	 4.080334
H	 -2.462480	 3.236013	 4.099692
C	 -2.474964	 0.799043	 2.755364
H	 -1.686856	 0.357063	 4.694146
H	 -3.312756	 0.984488	 4.707185
C	 -1.158526	 0.603377	 2.022431
H	 -3.038340	 -0.119961	 2.614635
H	 -3.047576	 1.574305	 2.254763
C	 -1.180025	 0.697761	 0.509157
O	 -0.149770	 0.364352	 2.604285
C	 -2.285431	 -0.137488	 -0.145671
H	 -0.209921	 0.373472	 0.157623
H	 -1.304974	 1.741273	 0.232271
C	 -3.646545	 0.082747	 0.508954
H	 -2.348635	 0.118247	 -1.199806
H	 -2.034895	 -1.192387	 -0.096473
C	 -4.757412	 -0.737227	 -0.138149
H	 -3.900211	 1.137405	 0.459735
H	 -3.580878	 -0.166775	 1.564416
H	 -4.867876	 -0.486707	 -1.187777
H	 -4.549650	 -1.800049	 -0.072540
H	 -5.709585	 -0.556397	 0.346597

16 12 15 17 F
