%nprocshared=1
%mem=2GB
#HF/6-31G* nosymm scf=tight opt=ModRedundant

Mol

0 1
O	 0.501689	 0.382464	 -0.980106
C	 1.122059	 0.121804	 -0.000188
C	 0.838326	 0.649498	 1.385066
O	 2.172624	 -0.688929	 0.000216
C	 -0.362007	 1.589354	 1.441732
H	 0.697594	 -0.208524	 2.036791
H	 1.741022	 1.142133	 1.736073
C	 -0.627008	 2.109373	 2.855493
H	 -1.240486	 1.071582	 1.069319
H	 -0.195755	 2.423988	 0.767751
C	 -1.827255	 3.052824	 2.921144
H	 -0.792122	 1.269070	 3.526838
H	 0.257199	 2.625007	 3.224777
H	 -2.734517	 2.555659	 2.590453
H	 -1.993467	 3.406654	 3.933791
H	 -1.677435	 3.921565	 2.286729
C	 3.452279	 -0.082609	 0.000533
H	 3.583069	 0.529321	 -0.880332
H	 4.163299	 -0.894027	 0.001117
H	 3.582335	 0.529955	 0.881077

1 2 4 17 F
