%nprocshared=4
%mem=2GB
#HF/cc-pVTZ nosymm scf=tight 
prop=(read,field)

Mol

0 1
O	 0.395956	 1.296780	 -0.000076
C	 0.503080	 0.114405	 -0.000074
C	 -0.701393	 -0.805532	 -0.000109
C	 1.858147	 -0.556019	 0.000212
C	 -2.036823	 -0.078409	 0.000015
H	 -0.615265	 -1.458122	 -0.865062
H	 -0.615198	 -1.458326	 0.864686
H	 -2.134417	 0.553662	 -0.872447
H	 -2.853021	 -0.790923	 -0.000045
H	 -2.134367	 0.553458	 0.872632
H	 1.961135	 -1.190997	 -0.872843
H	 2.636717	 0.191189	 -0.000109
H	 1.961099	 -1.190180	 0.873873

@grid.dat /N
