%nprocshared=4
%mem=2GB
#HF/cc-pVTZ nosymm scf=tight opt=ModRedundant

Mol

0 1
O	 3.219313	 0.959291	 -0.614106
C	 2.698710	 0.058177	 -0.050237
C	 1.246364	 -0.005813	 0.348416
O	 3.344101	 -1.038700	 0.312317
C	 0.453207	 1.232821	 -0.049003
H	 0.839270	 -0.907818	 -0.092281
H	 1.216683	 -0.160521	 1.422434
C	 -0.998367	 1.217982	 0.432195
H	 0.481498	 1.345443	 -1.127236
H	 0.951413	 2.105557	 0.354893
C	 -1.882951	 0.151251	 -0.211235
H	 -1.429490	 2.193659	 0.228843
H	 -1.019755	 1.099323	 1.513279
C	 -3.358558	 0.303582	 0.148162
H	 -1.770420	 0.199552	 -1.291918
H	 -1.550986	 -0.839198	 0.085996
C	 -3.660226	 0.010335	 1.615055
H	 -3.950727	 -0.359312	 -0.478135
H	 -3.683318	 1.314251	 -0.088362
C	 -5.136514	 0.162862	 1.965891
H	 -3.336453	 -0.999294	 1.852841
H	 -3.071219	 0.673976	 2.242357
H	 -5.315965	 -0.051944	 3.013096
H	 -5.749853	 -0.513582	 1.379932
H	 -5.482693	 1.172616	 1.771556
C	 4.720529	 -1.114346	 0.001449
H	 4.874321	 -1.055557	 -1.065852
H	 5.057824	 -2.067950	 0.373977
H	 5.264321	 -0.313596	 0.480350

15 11 8 5 F
