%nprocshared=4
%mem=2GB
#HF/cc-pVTZ nosymm scf=tight opt=ModRedundant

Mol

0 1
O	 0.053841	 0.551337	 -0.280558
C	 1.121787	 0.124983	 0.000110
C	 1.696711	 0.050685	 1.391299
O	 1.969101	 -0.353489	 -0.896273
C	 0.731728	 -0.512533	 2.424506
H	 2.601751	 -0.545109	 1.332882
H	 2.019019	 1.051632	 1.659037
C	 0.157737	 -1.863601	 2.008022
H	 -0.073963	 0.194987	 2.585189
H	 1.241803	 -0.607889	 3.376490
C	 -0.812520	 -2.436240	 3.035435
H	 -0.349201	 -1.762411	 1.051980
H	 0.969666	 -2.568230	 1.848318
H	 -1.654072	 -1.769936	 3.191685
H	 -1.203823	 -3.394400	 2.713741
H	 -0.325642	 -2.581728	 3.993748
C	 3.226978	 0.281687	 -1.004047
H	 3.107866	 1.319775	 -1.276836
H	 3.762124	 -0.246898	 -1.776112
H	 3.765395	 0.222432	 -0.069799

1 2 4 17 F
