%nprocshared=4
%mem=2GB
#HF/cc-pVTZ nosymm scf=tight opt=ModRedundant

Mol

0 1
O	 -2.081319	 -0.951530	 -0.502732
N	 -1.613558	 0.006676	 0.014756
C	 -0.329345	 -0.171618	 0.743966
O	 -2.068523	 1.100482	 -0.024385
C	 0.835904	 0.041968	 -0.213982
H	 -0.346048	 -1.174374	 1.137184
H	 -0.333613	 0.555559	 1.538590
C	 2.047229	 0.629086	 0.505845
H	 1.097839	 -0.907247	 -0.666684
H	 0.519821	 0.706376	 -1.009841
C	 3.226419	 0.859713	 -0.432666
H	 2.348745	 -0.037996	 1.308047
H	 1.768604	 1.568658	 0.973798
H	 3.549045	 -0.068845	 -0.890257
H	 2.963828	 1.548009	 -1.228286
H	 4.070828	 1.277137	 0.102021

9 5 3 2 F
