%nprocshared=4
%mem=2GB
#HF/cc-pVTZ nosymm scf=tight opt=ModRedundant

Mol

0 1
O	 -1.746929	 -0.049588	 2.430249
C	 -0.793317	 0.617871	 2.192439
C	 0.470245	 0.002045	 1.624798
C	 -0.793915	 2.110370	 2.423122
C	 0.376695	 -0.140025	 0.100361
H	 0.588660	 -0.975793	 2.074156
H	 1.333232	 0.604929	 1.886807
C	 1.630207	 -0.772146	 -0.501001
H	 -0.497277	 -0.735268	 -0.132207
H	 0.219056	 0.837102	 -0.349829
C	 2.907848	 -0.545876	 0.309149
H	 1.772784	 -0.391628	 -1.509394
H	 1.468529	 -1.842059	 -0.599744
C	 3.373802	 0.906639	 0.372125
H	 3.699140	 -1.146831	 -0.127906
H	 2.764321	 -0.923458	 1.318191
H	 3.519798	 1.311927	 -0.623875
H	 4.316899	 0.983758	 0.900700
H	 2.661122	 1.540651	 0.885346
H	 -0.108819	 2.346739	 3.231065
H	 -1.786127	 2.446352	 2.682355
H	 -0.442064	 2.634258	 1.541458

3 5 8 12 F
