%nprocshared=4
%mem=2GB
#HF/cc-pVTZ nosymm scf=tight opt=ModRedundant

Mol

0 1
O	 1.539401	 1.829190	 0.483690
C	 0.810494	 1.669831	 1.402569
C	 -0.490359	 0.909481	 1.366671
O	 1.051941	 2.152037	 2.610707
C	 -0.824290	 0.329213	 -0.000115
H	 -0.427542	 0.130680	 2.119647
H	 -1.267139	 1.586556	 1.706706
C	 -2.146151	 -0.432825	 -0.000068
H	 -0.021014	 -0.326857	 -0.315698
H	 -0.861330	 1.130702	 -0.729179
C	 -3.366283	 0.483552	 0.000557
H	 -2.189286	 -1.084450	 -0.869996
H	 -2.188867	 -1.085083	 0.869399
C	 -4.687436	 -0.278003	 0.000108
H	 -3.325150	 1.134819	 -0.867957
H	 -3.325087	 1.133730	 0.869885
H	 -4.773783	 -0.912098	 -0.876078
H	 -5.531922	 0.401392	 0.000363
H	 -4.773901	 -0.912898	 0.875703
C	 2.244120	 2.889859	 2.788615
H	 3.106998	 2.279248	 2.567688
H	 2.256261	 3.190735	 3.823590
H	 2.253966	 3.758867	 2.147568

9 5 8 12 F
