%nprocshared=1
%mem=2GB
#HF/6-31G* nosymm scf=tight 

Mol

0 1
O	 0.182608	 -4.503900	 -2.584464
C	 0.417374	 -3.439248	 -3.070093
C	 0.374212	 -2.174271	 -2.230881
C	 0.798878	 -3.297820	 -4.526742
C	 1.656059	 -2.026929	 -1.395237
H	 -0.482373	 -2.247362	 -1.569653
H	 0.240357	 -1.300793	 -2.862661
C	 1.631333	 -0.777471	 -0.511575
H	 1.770214	 -2.919766	 -0.790923
H	 2.520724	 -1.981567	 -2.055573
C	 2.915987	 -0.544314	 0.291766
H	 0.786532	 -0.839154	 0.171970
H	 1.452551	 0.092818	 -1.139653
C	 3.373361	 0.914346	 0.347591
H	 3.708709	 -1.142521	 -0.150311
H	 2.780642	 -0.921148	 1.303579
H	 3.506512	 1.320010	 -0.651625
H	 4.322697	 0.999599	 0.867103
H	 2.660624	 1.545032	 0.868198
H	 0.021556	 -2.753639	 -5.056745
H	 0.921844	 -4.274452	 -4.973792
H	 1.716806	 -2.726376	 -4.630009

6 3 2 1 F
6 3 5 8 F
3 5 8 12 F
