%nprocshared=4
%mem=2GB
#HF/6-31G* nosymm scf=tight opt=ModRedundant

Mol

0 1
O	 -2.821601	 1.309235	 -0.001213
C	 -2.668563	 0.129746	 -0.000350
C	 -3.801572	 -0.864014	 -0.000442
O	 -1.481751	 -0.454642	 0.000584
H	 -4.417280	 -0.689587	 -0.874708
H	 -3.443784	 -1.883046	 -0.000565
H	 -4.417179	 -0.689832	 0.873954
C	 -0.334255	 0.388708	 0.000906
C	 0.891947	 -0.504646	 0.000751
H	 -0.365390	 1.025305	 -0.873475
H	 -0.365484	 1.024911	 0.875569
C	 2.191998	 0.301789	 0.000897
H	 0.855148	 -1.151283	 -0.871571
H	 0.855132	 -1.151660	 0.872805
C	 3.239779	 -0.257011	 0.965379
H	 2.607093	 0.322942	 -1.005251
H	 1.978439	 1.336142	 0.264690
C	 4.538739	 0.547706	 0.964496
H	 3.454634	 -1.290481	 0.702985
H	 2.827452	 -0.276707	 1.971693
H	 4.993363	 0.557606	 -0.022030
H	 5.261128	 0.127458	 1.657159
H	 4.361535	 1.578881	 1.256533

16 12 9 13 F
