%nprocshared=4
%mem=2GB
#HF/6-31G* nosymm scf=tight opt=ModRedundant

Mol

0 1
O	 -2.219505	 -0.430936	 1.797735
C	 -1.144145	 -0.009412	 2.098324
C	 0.121295	 -0.631441	 1.534367
C	 -0.986530	 1.176888	 3.023108
C	 0.379448	 -0.143569	 0.099626
H	 -0.014148	 -1.707523	 1.531770
H	 0.975013	 -0.399425	 2.164732
C	 1.631333	 -0.777471	 -0.511575
H	 -0.495418	 -0.373122	 -0.498120
H	 0.487912	 0.939925	 0.095000
C	 2.915987	 -0.544314	 0.291766
H	 1.766672	 -0.399098	 -1.523130
H	 1.471257	 -1.849544	 -0.605828
C	 3.373361	 0.914346	 0.347591
H	 3.708709	 -1.142521	 -0.150311
H	 2.780642	 -0.921148	 1.303579
H	 3.506512	 1.320010	 -0.651625
H	 4.322697	 0.999599	 0.867103
H	 2.660624	 1.545032	 0.868198
H	 -0.511858	 0.858783	 3.947640
H	 -1.954360	 1.604419	 3.245157
H	 -0.344047	 1.930060	 2.576173

3 5 8 12 F
