%nprocshared=4
%mem=2GB
#HF/cc-pVTZ nosymm scf=tight opt=ModRedundant

Mol

0 1
H	 -3.436473	 1.252944	 -1.023892
O	 -3.458596	 0.315260	 -0.960865
C	 -3.176635	 -0.080824	 0.355601
C	 -1.763371	 0.265266	 0.799691
H	 -3.321825	 -1.153438	 0.379502
H	 -3.895468	 0.357385	 1.043382
C	 -0.673390	 -0.426948	 -0.013392
H	 -1.631049	 1.344913	 0.747560
H	 -1.664587	 -0.001624	 1.849167
C	 0.146440	 0.539038	 -0.864698
H	 -1.125725	 -1.179243	 -0.650069
H	 -0.011417	 -0.960194	 0.664802
C	 0.617660	 1.765591	 -0.085873
H	 1.000971	 0.009136	 -1.274418
H	 -0.448010	 0.863848	 -1.716158
C	 -0.497891	 2.711667	 0.361714
H	 1.335164	 2.318454	 -0.687853
H	 1.158053	 1.430216	 0.795103
C	 -1.229154	 3.419866	 -0.776202
H	 -0.068143	 3.462112	 1.018163
H	 -1.215983	 2.160037	 0.962938
H	 -0.534880	 3.975481	 -1.398579
H	 -1.957038	 4.122591	 -0.386839
H	 -1.759607	 2.722913	 -1.413760

11 7 4 3 F
