%nprocshared=4
%mem=2GB
#HF/cc-pVTZ nosymm scf=tight opt=ModRedundant

Mol

0 1
H	 2.614283	 2.028610	 0.296620
O	 3.358864	 1.662087	 -0.142800
C	 3.565468	 0.338079	 0.273842
C	 2.533667	 -0.637565	 -0.272227
H	 4.548038	 0.064914	 -0.086598
H	 3.593945	 0.282242	 1.360360
C	 1.114816	 -0.402372	 0.240993
H	 2.544552	 -0.580764	 -1.356576
H	 2.850574	 -1.642962	 -0.005497
C	 0.903943	 -0.931033	 1.659051
H	 0.407267	 -0.877148	 -0.430546
H	 0.897132	 0.664183	 0.221995
C	 -0.479216	 -0.656492	 2.252138
H	 1.094218	 -2.001469	 1.672858
H	 1.650926	 -0.483393	 2.308745
C	 -1.631738	 -1.395102	 1.573986
H	 -0.461132	 -0.934729	 3.302273
H	 -0.673850	 0.413401	 2.227613
C	 -2.974927	 -1.166846	 2.262574
H	 -1.414321	 -2.460926	 1.559255
H	 -1.713797	 -1.086973	 0.536044
C	 -4.128444	 -1.899857	 1.585826
H	 -2.905261	 -1.485013	 3.299152
H	 -3.189648	 -0.101752	 2.285660
H	 -3.958791	 -2.971466	 1.575423
H	 -5.065156	 -1.718812	 2.100511
H	 -4.248816	 -1.575975	 0.557253

10 7 4 8 F
