%nprocshared=4
%mem=2GB
#HF/cc-pVTZ nosymm scf=tight opt=ModRedundant

Mol

0 1
H	 -0.033475	 -0.419184	 -0.754480
N	 -0.625934	 -0.663929	 -0.000707
C	 -1.978635	 -0.158664	 0.001017
C	 -0.122482	 -1.456444	 0.971423
H	 -2.519057	 -0.493535	 -0.876362
H	 -1.938890	 0.917202	 -0.004137
H	 -2.514266	 -0.485137	 0.884506
C	 1.317376	 -1.871536	 0.763273
O	 -0.755600	 -1.812696	 1.920804
H	 1.959986	 -0.999810	 0.721515
H	 1.621282	 -2.502608	 1.582088
H	 1.424691	 -2.413166	 -0.169325

4 2 3 5 F
