%nprocshared=4
%mem=2GB
#HF/cc-pVTZ nosymm scf=tight opt=ModRedundant

Mol

0 1
H	 3.273419	 0.176595	 -0.102789
N	 2.433987	 -0.362316	 -0.080024
C	 1.263552	 0.494993	 0.021953
H	 2.497638	 -0.973615	 0.707122
C	 -0.016533	 -0.325589	 -0.026925
H	 1.280915	 1.180773	 -0.818522
H	 1.263064	 1.106893	 0.925038
C	 -1.280353	 0.525521	 0.047747
H	 -0.016686	 -0.912532	 -0.939714
H	 -0.014099	 -1.037598	 0.796369
C	 -2.415326	 -0.014567	 -0.816042
H	 -1.047586	 1.541341	 -0.260304
H	 -1.614282	 0.589750	 1.079852
H	 -2.124350	 -0.059459	 -1.860096
H	 -3.296360	 0.612837	 -0.744676
H	 -2.697201	 -1.016528	 -0.509770

12 8 5 9 F
