%nprocshared=4
%mem=2GB
#HF/cc-pVTZ nosymm scf=tight opt=ModRedundant

Mol

0 1
H	 -0.085978	 -0.224744	 3.050503
O	 -0.041726	 -0.241276	 2.112514
C	 -0.033754	 1.068412	 1.605888
C	 0.027642	 1.012027	 0.090274
H	 0.832004	 1.611806	 1.975960
H	 -0.918855	 1.606927	 1.933086
C	 -1.138737	 0.285728	 -0.581921
H	 0.955244	 0.523240	 -0.189278
H	 0.086167	 2.032743	 -0.279764
C	 -1.933983	 -0.631436	 0.343653
H	 -0.763151	 -0.285569	 -1.422081
H	 -1.808359	 1.035291	 -0.992333
H	 -2.789188	 -1.049673	 -0.174718
H	 -1.335629	 -1.461368	 0.700418
H	 -2.305435	 -0.092167	 1.209725

8 4 7 11 F
