%nprocshared=4
%mem=2GB
#HF/cc-pVTZ nosymm scf=tight opt=ModRedundant

Mol

0 1
H	 -1.088256	 -1.364742	 0.152233
O	 -1.432053	 -0.565244	 -0.200812
C	 -0.727158	 0.534527	 0.310686
C	 0.680222	 0.664433	 -0.252229
H	 -1.306802	 1.408001	 0.044211
H	 -0.690821	 0.490158	 1.397609
C	 1.515506	 -0.606422	 -0.128643
H	 0.610590	 0.957409	 -1.294605
H	 1.177295	 1.475759	 0.272478
H	 1.080540	 -1.425192	 -0.691266
H	 2.516659	 -0.451713	 -0.512455
H	 1.604778	 -0.919457	 0.907212

8 4 3 2 F
