%nprocshared=4
%mem=2GB
#HF/cc-pVTZ nosymm scf=tight opt=ModRedundant

Mol

0 1
H	 -1.445479	 -0.324554	 0.437759
N	 -0.625934	 -0.663929	 -0.000707
C	 -0.663443	 -1.974945	 -0.604799
C	 0.468494	 0.129045	 -0.002160
H	 -0.893443	 -2.735289	 0.132063
H	 0.304904	 -2.181460	 -1.027587
H	 -1.406125	 -2.018718	 -1.392547
C	 1.785715	 -0.615093	 0.000603
O	 0.413285	 1.323206	 0.000532
H	 1.866994	 -1.243310	 -0.878792
H	 2.591506	 0.100263	 0.006422
H	 1.860358	 -1.250360	 0.875522

3 2 4 9 F
