%nprocshared=4
%mem=2GB
#HF/6-31G* nosymm scf=tight opt=ModRedundant

Mol

0 1
H	 -3.420663	 1.227371	 -1.044276
O	 -3.452007	 0.283848	 -0.965577
C	 -3.181085	 -0.079926	 0.364119
C	 -1.765924	 0.277073	 0.805136
H	 -3.327791	 -1.152017	 0.410903
H	 -3.905698	 0.375695	 1.036898
C	 -0.677594	 -0.417312	 -0.014550
H	 -1.637766	 1.358238	 0.744969
H	 -1.659588	 0.017670	 1.857098
C	 0.630541	 0.374550	 -0.068544
H	 -1.044450	 -0.588232	 -1.021979
H	 -0.486537	 -1.400884	 0.411449
C	 1.716973	 -0.329604	 -0.885808
H	 0.431149	 1.358779	 -0.485622
H	 0.995540	 0.540418	 0.944307
C	 3.074746	 0.382086	 -0.895970
H	 1.370962	 -0.456020	 -1.910498
H	 1.856397	 -1.332603	 -0.487851
C	 3.075041	 1.741274	 -1.598119
H	 3.798199	 -0.263767	 -1.387682
H	 3.424425	 0.504170	 0.127272
H	 2.717613	 1.652085	 -2.620581
H	 4.077779	 2.156018	 -1.634753
H	 2.444085	 2.462113	 -1.088758

11 7 4 3 F
