%nprocshared=4
%mem=2GB
#HF/6-31G* nosymm scf=tight opt=ModRedundant

Mol

0 1
H	 -3.420663	 1.227371	 -1.044276
O	 -3.452007	 0.283848	 -0.965577
C	 -3.181085	 -0.079926	 0.364119
C	 -1.765924	 0.277073	 0.805136
H	 -3.327791	 -1.152017	 0.410903
H	 -3.905698	 0.375695	 1.036898
C	 -0.677594	 -0.417312	 -0.014550
H	 -1.637766	 1.358238	 0.744969
H	 -1.659588	 0.017670	 1.857098
C	 0.738335	 -0.034840	 0.421385
H	 -0.814977	 -0.178223	 -1.064632
H	 -0.802730	 -1.495410	 0.071702
C	 1.822265	 -0.738362	 -0.399735
H	 0.853533	 1.043532	 0.342250
H	 0.871597	 -0.279636	 1.474438
C	 1.449537	 -1.000471	 -1.863473
H	 2.080346	 -1.681808	 0.078802
H	 2.724770	 -0.131079	 -0.377191
C	 0.302867	 -1.993997	 -2.059579
H	 2.328782	 -1.377387	 -2.380341
H	 1.196701	 -0.057679	 -2.344534
H	 0.522495	 -2.943065	 -1.577737
H	 0.139241	 -2.190444	 -3.114791
H	 -0.630848	 -1.623201	 -1.649881

17 13 10 7 F
