%nprocshared=4
%mem=2GB
#HF/cc-pVTZ nosymm scf=tight opt=ModRedundant

Mol

0 1
H	 2.614283	 2.028610	 0.296620
O	 3.358864	 1.662087	 -0.142800
C	 3.565468	 0.338079	 0.273842
C	 2.533667	 -0.637565	 -0.272227
H	 4.548038	 0.064914	 -0.086598
H	 3.593945	 0.282242	 1.360360
C	 1.114816	 -0.402372	 0.240993
H	 2.544552	 -0.580764	 -1.356576
H	 2.850574	 -1.642962	 -0.005497
C	 0.113298	 -1.420414	 -0.302504
H	 0.796373	 0.598427	 -0.031033
H	 1.113377	 -0.446476	 1.328807
C	 0.711040	 -2.777118	 -0.679748
H	 -0.678093	 -1.567760	 0.428398
H	 -0.363778	 -0.998847	 -1.182929
C	 1.238377	 -3.600275	 0.494166
H	 -0.052981	 -3.355735	 -1.191609
H	 1.510338	 -2.628252	 -1.402324
C	 1.732536	 -4.983802	 0.079355
H	 0.450906	 -3.709911	 1.236687
H	 2.049356	 -3.072138	 0.986493
C	 2.263201	 -5.806913	 1.248447
H	 0.922636	 -5.524286	 -0.402845
H	 2.513489	 -4.876250	 -0.668714
H	 1.495542	 -5.959703	 1.999841
H	 2.602767	 -6.782626	 0.920140
H	 3.099800	 -5.310621	 1.729227

14 10 7 4 F
