%nprocshared=4
%mem=2GB
#HF/cc-pVTZ nosymm scf=tight opt=ModRedundant

Mol

0 1
O	 -2.699718	 -0.541428	 0.612356
C	 -1.922978	 0.063265	 -0.045005
C	 -2.265509	 0.817055	 -1.299169
O	 -0.637375	 0.157174	 0.243149
H	 -1.692399	 0.422458	 -2.128359
H	 -3.320370	 0.724066	 -1.499814
H	 -1.998362	 1.859349	 -1.181586
C	 0.162530	 -1.009518	 0.097799
C	 1.587210	 -0.664190	 0.477086
H	 0.096803	 -1.356267	 -0.924704
H	 -0.233803	 -1.785900	 0.736810
C	 2.256770	 0.342732	 -0.454344
H	 2.154716	 -1.590834	 0.479041
H	 1.598751	 -0.289614	 1.496104
C	 3.698146	 0.643205	 -0.057145
H	 2.235038	 -0.042575	 -1.470299
H	 1.683491	 1.262594	 -0.461300
H	 4.150202	 1.356548	 -0.736242
H	 4.305463	 -0.255904	 -0.069842
H	 3.749130	 1.061068	 0.942759

1 2 4 8 F
