%nprocshared=4
%mem=2GB
#HF/6-31G* nosymm scf=tight opt=ModRedundant

Mol

0 1
H	 -3.135461	 -1.215070	 0.001379
O	 -2.310168	 -0.871793	 -0.309793
C	 -2.026376	 0.340750	 0.341611
C	 -0.673256	 0.843270	 -0.132153
H	 -2.792215	 1.080697	 0.115987
H	 -2.013526	 0.200402	 1.421792
C	 0.486613	 -0.083066	 0.235839
H	 -0.715586	 0.970948	 -1.210718
H	 -0.508072	 1.829858	 0.297090
C	 0.150548	 -1.563186	 0.045788
H	 0.771832	 0.096711	 1.267267
H	 1.353664	 0.168714	 -0.373810
C	 1.311602	 -2.488637	 0.407958
H	 -0.714798	 -1.816215	 0.654779
H	 -0.141966	 -1.739617	 -0.987533
H	 1.604525	 -2.360512	 1.446066
H	 1.043985	 -3.531273	 0.265702
H	 2.183019	 -2.283910	 -0.207859

10 7 4 8 F
