%nprocshared=4
%mem=2GB
#HF/cc-pVTZ nosymm scf=tight opt=ModRedundant

Mol

0 1
O	 -0.694481	 1.313155	 -0.204815
C	 -0.862519	 0.151932	 -0.046791
C	 -2.171428	 -0.477048	 0.339095
O	 0.085519	 -0.757083	 -0.192238
H	 -2.467997	 -1.191667	 -0.417688
H	 -2.923379	 0.287970	 0.444097
H	 -2.053854	 -1.015120	 1.270901
C	 1.431834	 -0.323526	 -0.346979
C	 2.098664	 -0.079091	 0.990738
H	 1.451102	 0.564570	 -0.959131
H	 1.918798	 -1.127503	 -0.878240
H	 3.138880	 0.184046	 0.835293
H	 1.618267	 0.732711	 1.519489
H	 2.061136	 -0.970293	 1.605509

8 4 2 1 F
