%nprocshared=4
%mem=2GB
#HF/6-31G* nosymm scf=tight opt=ModRedundant

Mol

0 1
H	 2.591676	 2.013956	 0.335017
O	 3.341076	 1.666752	 -0.126416
C	 3.569581	 0.339145	 0.272707
C	 2.440664	 -0.236413	 1.120649
H	 3.666407	 -0.230775	 -0.642438
H	 4.516655	 0.258920	 0.805056
C	 2.249133	 0.470611	 2.464636
H	 1.518680	 -0.186282	 0.547238
H	 2.649992	 -1.290806	 1.293288
C	 1.145178	 -0.164427	 3.314830
H	 2.014431	 1.516532	 2.287635
H	 3.185883	 0.449224	 3.021755
C	 0.969607	 0.452382	 4.707333
H	 0.201411	 -0.109352	 2.775277
H	 1.365072	 -1.223418	 3.432669
C	 0.465592	 1.898209	 4.712875
H	 0.267134	 -0.161733	 5.266985
H	 1.914192	 0.397551	 5.246398
C	 0.205869	 2.433560	 6.122619
H	 -0.453021	 1.960403	 4.131161
H	 1.184186	 2.546980	 4.217878
C	 -0.291207	 3.878726	 6.131319
H	 -0.523864	 1.798316	 6.620055
H	 1.120143	 2.363189	 6.708312
H	 -1.222549	 3.976297	 5.580588
H	 -0.467860	 4.228272	 7.143863
H	 0.433672	 4.545871	 5.673244

4 3 2 1 F
