%nprocshared=4
%mem=2GB
#HF/cc-pVTZ nosymm scf=tight opt=ModRedundant

Mol

0 1
O	 -6.524752	 2.802847	 1.687863
C	 -5.847460	 2.733349	 2.660774
C	 -4.485629	 2.069115	 2.654467
C	 -6.304797	 3.309082	 3.981986
C	 -4.066777	 1.502139	 1.305419
H	 -3.762516	 2.801640	 3.006012
H	 -4.497992	 1.289759	 3.413056
C	 -2.690558	 0.843834	 1.347476
H	 -4.072602	 2.297080	 0.568432
H	 -4.808848	 0.783938	 0.975795
C	 -2.258482	 0.271340	 0.000669
H	 -1.951871	 1.569268	 1.681184
H	 -2.691590	 0.048980	 2.090085
C	 -2.305585	 1.289336	 -1.135201
H	 -2.894137	 -0.574452	 -0.249717
H	 -1.249055	 -0.123442	 0.086301
C	 -3.572900	 2.137654	 -1.127623
H	 -1.437227	 1.939525	 -1.070796
H	 -2.226298	 0.769809	 -2.086371
H	 -3.663669	 2.697063	 -0.202494
H	 -3.574663	 2.849112	 -1.945453
H	 -4.458537	 1.518747	 -1.225834
H	 -5.599679	 4.056636	 4.328422
H	 -7.280871	 3.755024	 3.868822
H	 -6.344460	 2.530156	 4.735474

15 11 14 18 F
