%nprocshared=4
%mem=2GB
#HF/cc-pVTZ nosymm scf=tight opt=ModRedundant

Mol

0 1
O	 -2.817697	 1.304178	 0.001046
C	 -2.664672	 0.129869	 0.003507
C	 -3.797908	 -0.860100	 -0.001145
O	 -1.481217	 -0.452708	 0.001092
H	 -4.408836	 -0.679689	 -0.875387
H	 -3.443486	 -1.878443	 -0.002770
H	 -4.412123	 -0.683688	 0.871605
C	 -0.332055	 0.384012	 -0.000250
C	 0.892252	 -0.506059	 -0.000295
H	 -0.360822	 1.020205	 -0.874146
H	 -0.359817	 1.021310	 0.872861
C	 2.145699	 0.241037	 -0.446477
H	 0.712094	 -1.352175	 -0.655506
H	 1.035508	 -0.907516	 0.997691
C	 3.393990	 -0.636938	 -0.453951
H	 1.989785	 0.648426	 -1.442319
H	 2.312306	 1.092906	 0.208149
C	 4.646996	 0.109555	 -0.898622
H	 3.229375	 -1.487632	 -1.109144
H	 3.550909	 -1.044486	 0.540719
H	 4.533736	 0.500137	 -1.904337
H	 5.513738	 -0.541005	 -0.892615
H	 4.857573	 0.946923	 -0.241868

13 9 8 10 F
