%nprocshared=4
%mem=2GB
#HF/6-31G* nosymm scf=tight opt=ModRedundant

Mol

0 1
H	 -2.344435	 1.232776	 -1.523953
N	 -1.356901	 1.187448	 -1.363650
C	 -0.784922	 0.015460	 -2.002704
H	 -1.217413	 1.129723	 -0.373539
C	 0.700512	 -0.055929	 -1.717176
H	 -1.241315	 -0.923571	 -1.686590
H	 -0.926650	 0.101443	 -3.075691
O	 0.874168	 -0.245412	 -0.342030
H	 1.150765	 -0.881086	 -2.268561
H	 1.178646	 0.868314	 -2.034031
C	 2.202317	 -0.244239	 0.074611
H	 2.711377	 -1.041390	 -0.449894
H	 2.692099	 0.699270	 -0.159667
H	 2.283185	 -0.418429	 1.145558

5 8 11 13 F
