%nprocshared=4
%mem=2GB
#HF/cc-pVTZ nosymm scf=tight opt=ModRedundant

Mol

0 1
O	 -0.492727	 0.104136	 0.664066
C	 0.485107	 0.171416	 -0.000134
C	 1.606966	 -0.836201	 0.000174
O	 0.724760	 1.158682	 -0.845390
C	 2.988788	 -0.202529	 -0.000115
H	 1.465110	 -1.474645	 -0.864821
H	 1.465209	 -1.474077	 0.865596
H	 3.131767	 0.419673	 -0.873407
H	 3.750876	 -0.972315	 0.000098
H	 3.131883	 0.420264	 0.872742
C	 -0.248151	 2.188064	 -0.955408
C	 0.251284	 3.188729	 -1.971145
H	 -0.390674	 2.644156	 0.014136
H	 -1.190297	 1.752656	 -1.257242
H	 1.195352	 3.617145	 -1.658788
H	 -0.469743	 3.990334	 -2.079692
H	 0.391117	 2.720611	 -2.937418

4 2 3 6 F
