%nprocshared=4
%mem=2GB
#HF/cc-pVTZ nosymm scf=tight opt=ModRedundant

Mol

0 1
H	 -0.471500	 -1.595450	 0.295097
N	 -0.625934	 -0.663929	 -0.000707
C	 -1.978635	 -0.158664	 0.001017
C	 0.444773	 0.066839	 -0.383000
H	 -2.519057	 -0.493535	 -0.876362
H	 -1.938890	 0.917202	 -0.004137
H	 -2.514266	 -0.485137	 0.884506
C	 1.767494	 -0.662845	 -0.300600
O	 0.366717	 1.201103	 -0.752360
H	 1.756539	 -1.538817	 -0.938683
H	 2.554040	 0.002089	 -0.617264
H	 1.957649	 -0.989344	 0.715205

4 2 3 5 F
