%nprocshared=4
%mem=2GB
#HF/cc-pVTZ nosymm scf=tight opt=ModRedundant

Mol

0 1
H	 0.193887	 -8.458234	 1.497173
O	 0.675978	 -8.877382	 0.808891
C	 -0.203886	 -9.406364	 -0.147817
C	 -0.869362	 -8.345606	 -1.011888
H	 0.394069	 -10.057702	 -0.770864
H	 -0.959634	 -10.024830	 0.332593
C	 0.091306	 -7.298093	 -1.570173
H	 -1.386429	 -8.840043	 -1.828792
H	 -1.628857	 -7.852524	 -0.409861
C	 0.675244	 -6.393894	 -0.485609
H	 -0.427075	 -6.691851	 -2.305533
H	 0.904544	 -7.797926	 -2.093715
C	 1.701674	 -5.372571	 -0.979160
H	 -0.134822	 -5.873207	 0.019272
H	 1.147654	 -7.018912	 0.267152
C	 3.009841	 -5.968591	 -1.496077
H	 1.247798	 -4.791569	 -1.777258
H	 1.918853	 -4.667595	 -0.179787
C	 3.483501	 -7.168232	 -0.679428
H	 3.781425	 -5.201776	 -1.485084
H	 2.898094	 -6.272898	 -2.532375
C	 4.787405	 -7.768073	 -1.195101
H	 3.610487	 -6.868801	 0.357294
H	 2.710250	 -7.931867	 -0.682378
H	 5.589371	 -7.037552	 -1.174452
H	 5.096164	 -8.614511	 -0.592342
H	 4.682460	 -8.112344	 -2.218729

10 13 16 20 F
