%nprocshared=4
%mem=2GB
#HF/6-31G* nosymm scf=tight opt=ModRedundant

Mol

0 1
H	 -2.819983	 -0.115515	 0.746589
C	 -2.594377	 0.653214	 0.010180
O	 -1.227317	 0.739752	 -0.232709
H	 -3.075770	 0.395854	 -0.923183
H	 -2.999079	 1.600198	 0.364957
C	 -0.469307	 1.073903	 0.886671
C	 0.997481	 1.030159	 0.527748
H	 -0.724471	 2.077132	 1.230354
H	 -0.659324	 0.380906	 1.703772
O	 1.392611	 -0.295398	 0.366430
H	 1.159813	 1.596528	 -0.387065
H	 1.575341	 1.502851	 1.322942
C	 2.706965	 -0.449871	 -0.062409
H	 2.756559	 -0.644779	 -1.131878
H	 3.305899	 0.433456	 0.155466
H	 3.125548	 -1.294566	 0.467107

7 10 13 14 F
