%nprocshared=4
%mem=2GB
#HF/cc-pVTZ nosymm scf=tight opt=ModRedundant

Mol

0 1
H	 0.050321	 -2.578466	 0.148028
C	 -0.835635	 -1.941873	 0.183821
N	 -0.537714	 -0.645117	 0.000000
O	 -1.922764	 -2.390328	 0.367551
C	 -1.522613	 0.412524	 0.000000
H	 0.413928	 -0.412692	 -0.142623
H	 -2.150256	 0.356137	 -0.880771
H	 -1.005621	 1.357208	 0.000000
H	 -2.150256	 0.356137	 0.880771

6 3 5 7 F
