%nprocshared=4
%mem=2GB
#HF/cc-pVTZ nosymm scf=tight opt=ModRedundant

Mol

0 1
O	 2.381825	 2.105639	 0.210937
C	 1.342044	 2.483858	 0.642118
C	 0.094543	 1.624162	 0.619875
C	 1.194312	 3.861558	 1.247381
C	 0.288398	 0.247429	 0.000314
H	 -0.262778	 1.539264	 1.643682
H	 -0.676539	 2.179750	 0.090952
C	 -0.993089	 -0.581367	 -0.000217
H	 1.067342	 -0.278837	 0.540134
H	 0.653355	 0.362258	 -1.013961
C	 -2.258482	 0.271340	 0.000669
H	 -1.002280	 -1.233920	 -0.870484
H	 -1.002061	 -1.235367	 0.868958
C	 -3.544441	 -0.550271	 -0.000253
H	 -2.250545	 0.925250	 -0.867923
H	 -2.250598	 0.923423	 0.870642
C	 -4.804551	 0.308747	 0.000556
H	 -3.553737	 -1.201524	 -0.870151
H	 -3.553831	 -1.203282	 0.868313
H	 -4.842050	 0.949078	 -0.874436
H	 -5.698404	 -0.304480	 -0.000254
H	 -4.842277	 0.947103	 0.876982
H	 0.859235	 3.784340	 2.275879
H	 2.139610	 4.380683	 1.211160
H	 0.445176	 4.429152	 0.706388

9 5 8 12 F
