%nprocshared=4
%mem=2GB
#HF/6-31G* nosymm scf=tight opt=ModRedundant

Mol

0 1
H	 -2.644465	 1.541790	 2.007177
C	 -2.482748	 0.580574	 1.559324
C	 -1.411393	 0.370527	 0.829886
H	 -3.211128	 -0.191161	 1.723029
O	 -1.180634	 -0.819263	 0.215062
H	 -0.666537	 1.127784	 0.659747
C	 0.051604	 -1.018856	 -0.387932
C	 1.043764	 0.054862	 -0.001873
H	 -0.017620	 -1.041351	 -1.469781
H	 0.437898	 -1.966374	 -0.042284
F	 2.212596	 -0.199467	 -0.571921
F	 0.652529	 1.252447	 -0.405055
F	 1.230877	 0.110694	 1.300533

3 5 7 9 F
