%nprocshared=1
%mem=2GB
#HF/6-31G* nosymm scf=tight 

Mol

0 1
H	 3.729471	 -0.928294	 -0.070608
O	 2.826016	 -1.159218	 0.122261
C	 2.077727	 -0.067559	 -0.035091
C	 0.624473	 -0.343591	 0.253101
O	 2.542965	 0.974826	 -0.363729
C	 -0.265902	 0.883932	 0.072916
H	 0.324016	 -1.163849	 -0.390541
H	 0.565024	 -0.726111	 1.268924
C	 -1.728698	 0.646073	 0.462102
H	 -0.209144	 1.219470	 -0.958188
H	 0.135059	 1.692851	 0.673903
C	 -2.756779	 1.352170	 -0.426399
H	 -1.864598	 0.985847	 1.486234
H	 -1.933375	 -0.423601	 0.469954
C	 -4.190009	 1.163919	 0.070482
H	 -2.525422	 2.414659	 -0.466835
H	 -2.686787	 0.984454	 -1.446824
H	 -4.899832	 1.671248	 -0.575338
H	 -4.312275	 1.561397	 1.073921
H	 -4.460439	 0.112069	 0.097249

16 12 9 6 F
7 4 6 10 F
5 3 4 7 F
1 2 3 5 F
