%nprocshared=4
%mem=2GB
#HF/cc-pVTZ nosymm scf=tight opt=ModRedundant

Mol

0 1
O	 -1.278239	 1.034789	 -0.784693
C	 -1.204115	 0.062668	 -0.112312
C	 -2.386398	 -0.667698	 0.460323
O	 -0.068058	 -0.518372	 0.226882
H	 -2.382952	 -1.693172	 0.114333
H	 -3.296656	 -0.175702	 0.158400
H	 -2.312537	 -0.685191	 1.540100
C	 1.150987	 0.228549	 0.157301
C	 2.257595	 -0.784771	 -0.056510
C	 1.329272	 1.043773	 1.425461
H	 1.085713	 0.891077	 -0.692337
H	 2.090568	 -1.347512	 -0.966001
H	 3.212689	 -0.279731	 -0.136761
H	 2.306402	 -1.480863	 0.772351
H	 2.257922	 1.600561	 1.379676
H	 0.518546	 1.748643	 1.546009
H	 1.362820	 0.394418	 2.292926

8 4 2 1 F
