%nprocshared=4
%mem=2GB
#HF/cc-pVTZ nosymm scf=tight opt=ModRedundant

Mol

0 1
H	 -1.004098	 -0.936133	 -0.873622
N	 -0.625934	 -0.663929	 -0.000707
C	 -1.269453	 -1.135243	 1.202971
C	 0.468494	 0.129045	 -0.002160
H	 -2.297244	 -0.795773	 1.251915
H	 -0.732751	 -0.743695	 2.050163
H	 -1.258481	 -2.217645	 1.251178
C	 1.785715	 -0.615093	 0.000603
O	 0.413285	 1.323206	 0.000532
H	 1.866994	 -1.243310	 -0.878792
H	 2.591506	 0.100263	 0.006422
H	 1.860358	 -1.250360	 0.875522

3 2 4 9 F
