%nprocshared=4
%mem=2GB
#HF/cc-pVTZ nosymm scf=tight opt=ModRedundant

Mol

0 1
H	 5.286789	 1.099886	 0.938638
C	 4.738787	 0.449151	 0.266995
C	 3.268321	 0.362246	 0.661330
H	 4.848869	 0.842490	 -0.737686
H	 5.211482	 -0.527400	 0.293590
C	 2.465836	 -0.556017	 -0.257790
H	 2.835090	 1.355755	 0.647555
H	 3.191791	 0.000731	 1.684205
C	 0.991282	 -0.667481	 0.116580
H	 2.544691	 -0.205057	 -1.279278
H	 2.900252	 -1.551179	 -0.230987
C	 0.166485	 0.574257	 -0.177158
H	 0.528928	 -1.476445	 -0.443395
H	 0.874775	 -0.930898	 1.163745
C	 -1.180025	 0.697761	 0.509157
O	 0.545791	 1.411529	 -0.931066
C	 -2.285431	 -0.137488	 -0.145671
H	 -1.447360	 1.745713	 0.496200
H	 -1.065514	 0.394096	 1.546399
C	 -3.646545	 0.082747	 0.508954
H	 -2.348635	 0.118247	 -1.199806
H	 -2.034895	 -1.192387	 -0.096473
C	 -4.757412	 -0.737227	 -0.138149
H	 -3.900211	 1.137405	 0.459735
H	 -3.580878	 -0.166775	 1.564416
H	 -4.867876	 -0.486707	 -1.187777
H	 -4.549650	 -1.800049	 -0.072540
H	 -5.709585	 -0.556397	 0.346597

16 12 15 17 F
