%nprocshared=4
%mem=2GB
#HF/cc-pVTZ nosymm scf=tight opt=ModRedundant

Mol

0 1
O	 2.942061	 -2.552812	 -1.184996
C	 2.391167	 -1.916005	 -0.353145
C	 2.797862	 -0.541062	 0.112105
O	 1.317782	 -2.342573	 0.292610
C	 4.029026	 0.001596	 -0.602748
H	 1.935907	 0.102114	 -0.017937
H	 2.963610	 -0.602542	 1.183122
C	 3.909147	 0.000528	 -2.127368
H	 4.899216	 -0.571681	 -0.302426
H	 4.207209	 1.014131	 -0.262113
C	 2.599960	 0.567332	 -2.674332
H	 4.013111	 -1.024094	 -2.471615
H	 4.745556	 0.548036	 -2.556245
C	 2.222949	 1.907870	 -2.049345
H	 2.685777	 0.685809	 -3.752047
H	 1.789405	 -0.136243	 -2.508444
C	 1.840939	 1.805294	 -0.575466
H	 1.394654	 2.342128	 -2.604040
H	 3.054911	 2.600277	 -2.155540
C	 1.463880	 3.148151	 0.041249
H	 1.009603	 1.113913	 -0.467786
H	 2.668820	 1.374008	 -0.019173
H	 1.198691	 3.040036	 1.086701
H	 0.615414	 3.589527	 -0.471003
H	 2.287407	 3.851916	 -0.019787
C	 0.824678	 -3.623490	 -0.043565
H	 -0.139967	 -3.792406	 0.411591
H	 1.544729	 -4.329140	 0.337866
H	 0.731980	 -3.727573	 -1.114467

2 4 26 27 F
