%nprocshared=4
%mem=2GB
#HF/cc-pVTZ nosymm scf=tight opt=ModRedundant

Mol

0 1
H	 -0.237847	 -0.971826	 0.855838
N	 -0.625934	 -0.663929	 -0.000707
C	 -1.978635	 -0.158664	 0.001017
C	 0.143068	 -0.738410	 -1.109613
H	 -2.519057	 -0.493535	 -0.876362
H	 -1.938890	 0.917202	 -0.004137
H	 -2.514266	 -0.485137	 0.884506
C	 1.530083	 -1.296475	 -0.878154
O	 -0.229003	 -0.388858	 -2.190562
H	 1.471269	 -2.304099	 -0.483397
H	 2.063029	 -1.308368	 -1.814581
H	 2.069697	 -0.686369	 -0.163167

4 2 3 5 F
