%nprocshared=1
%mem=2GB
#HF/6-31G* nosymm scf=tight 

Mol

0 1
H	 2.591676	 2.013956	 0.335017
O	 3.341076	 1.666752	 -0.126416
C	 3.569581	 0.339145	 0.272707
C	 3.847065	 0.199498	 1.765433
H	 2.669478	 -0.204463	 0.015844
H	 4.385547	 -0.096663	 -0.302663
C	 5.129679	 0.895199	 2.227783
H	 2.997418	 0.599076	 2.312977
H	 3.905997	 -0.861711	 2.001504
C	 5.408339	 0.691023	 3.719587
H	 5.056216	 1.957976	 2.014537
H	 5.974438	 0.517291	 1.651668
C	 6.726283	 1.295841	 4.217141
H	 4.582776	 1.102409	 4.297560
H	 5.419982	 -0.377045	 3.926460
C	 6.789971	 2.825110	 4.175217
H	 6.885904	 0.970257	 5.242973
H	 7.551733	 0.884394	 3.638193
C	 8.079995	 3.384776	 4.778582
H	 5.935911	 3.234858	 4.712618
H	 6.701265	 3.175436	 3.149690
C	 8.148965	 4.910802	 4.732174
H	 8.169178	 3.051066	 5.810169
H	 8.934792	 2.968930	 4.249169
H	 7.324649	 5.357381	 5.281076
H	 9.073278	 5.276636	 5.168576
H	 8.099472	 5.275014	 3.709792

14 10 7 4 F
14 10 13 16 F
10 7 4 8 F
8 4 3 2 F
10 13 16 20 F
20 16 19 22 F
