%nprocshared=1
%mem=2GB
#HF/6-31G* nosymm scf=tight 

Mol

0 1
O	 3.225979	 0.970355	 -0.599647
C	 2.701189	 0.057885	 -0.047330
C	 1.245376	 -0.013843	 0.345420
O	 3.347903	 -1.046386	 0.304773
C	 0.600141	 1.360412	 0.510372
H	 0.741890	 -0.612008	 -0.406839
H	 1.187420	 -0.586437	 1.267631
C	 -0.847454	 1.306524	 1.010431
H	 0.643094	 1.892582	 -0.435181
H	 1.195336	 1.940361	 1.207383
C	 -1.844508	 0.676056	 0.033955
H	 -1.167561	 2.323388	 1.225469
H	 -0.883797	 0.772290	 1.958736
C	 -3.289642	 0.745407	 0.531726
H	 -1.771033	 1.181021	 -0.928038
H	 -1.585013	 -0.364618	 -0.146687
C	 -4.294204	 0.113700	 -0.433642
H	 -3.561830	 1.785612	 0.702374
H	 -3.361595	 0.249970	 1.498713
C	 -5.735407	 0.190522	 0.069084
H	 -4.222930	 0.606935	 -1.400741
H	 -4.026321	 -0.927287	 -0.602060
H	 -6.423341	 -0.265233	 -0.636354
H	 -6.045514	 1.221519	 0.214249
H	 -5.847145	 -0.324014	 1.019369
C	 4.728119	 -1.109107	 -0.004993
H	 4.882018	 -1.033965	 -1.071845
H	 5.068212	 -2.067527	 0.355250
H	 5.265056	 -0.311663	 0.488280

21 17 14 11 F
17 14 11 15 F
15 11 8 5 F
6 3 5 9 F
11 8 5 9 F
2 4 26 27 F
1 2 4 26 F
