%nprocshared=4
%mem=2GB
#HF/6-31G* nosymm scf=tight opt=ModRedundant

Mol

0 1
O	 3.780578	 -1.625394	 2.397051
C	 2.997309	 -1.329956	 1.553092
C	 1.502655	 -1.225299	 1.737068
O	 3.347903	 -1.046386	 0.304773
C	 1.050954	 -1.531093	 3.163452
H	 1.212445	 -0.228003	 1.423427
H	 1.041228	 -1.906066	 1.026197
C	 -0.471086	 -1.531895	 3.342026
H	 1.500721	 -0.813966	 3.843568
H	 1.442659	 -2.501188	 3.449641
C	 -1.143925	 -0.169479	 3.151709
H	 -0.692414	 -1.891629	 4.344188
H	 -0.916010	 -2.253043	 2.657922
C	 -2.644696	 -0.200539	 3.447889
H	 -0.664183	 0.560338	 3.802118
H	 -0.994225	 0.183410	 2.133852
C	 -3.328555	 1.154313	 3.255947
H	 -2.802699	 -0.540257	 4.470073
H	 -3.123375	 -0.937844	 2.805280
C	 -4.826324	 1.115590	 3.557428
H	 -2.850789	 1.892494	 3.896628
H	 -3.175429	 1.493507	 2.233558
H	 -5.282510	 2.089993	 3.412375
H	 -5.011823	 0.813219	 4.584247
H	 -5.338762	 0.410690	 2.908739
C	 4.728119	 -1.109107	 -0.004993
H	 4.882018	 -1.033965	 -1.071845
H	 5.068212	 -2.067527	 0.355250
H	 5.265056	 -0.311663	 0.488280

2 4 26 27 F
