%nprocshared=4
%mem=2GB
#HF/cc-pVTZ nosymm scf=tight opt=ModRedundant

Mol

0 1
O	 2.868453	 1.353349	 -0.000734
C	 2.841259	 0.166180	 -0.000295
C	 1.542794	 -0.614730	 -0.000853
C	 4.113372	 -0.651103	 0.000743
C	 0.288398	 0.247429	 0.000314
H	 1.557171	 -1.273139	 -0.866508
H	 1.557484	 -1.274998	 0.863344
C	 -0.993089	 -0.581367	 -0.000217
H	 0.305153	 0.900562	 -0.864701
H	 0.305567	 0.898805	 0.866656
C	 -2.258482	 0.271340	 0.000669
H	 -1.002280	 -1.233920	 -0.870484
H	 -1.002061	 -1.235367	 0.868958
C	 -3.520194	 -0.514649	 0.345692
H	 -2.380029	 0.733212	 -0.976067
H	 -2.140029	 1.087672	 0.708975
C	 -4.780457	 0.344144	 0.344481
H	 -3.640047	 -1.330133	 -0.362517
H	 -3.400103	 -0.975626	 1.322420
H	 -4.947687	 0.792061	 -0.629401
H	 -5.656868	 -0.243459	 0.592771
H	 -4.706083	 1.149013	 1.068151
H	 4.145311	 -1.294584	 -0.871587
H	 4.970080	 0.004978	 -0.000091
H	 4.145223	 -1.291980	 0.874988

15 11 8 12 F
