%nprocshared=4
%mem=2GB
#HF/cc-pVTZ nosymm scf=tight opt=ModRedundant

Mol

0 1
H	 3.721907	 -0.933076	 -0.066039
O	 2.824271	 -1.154299	 0.131461
C	 2.076458	 -0.067370	 -0.038225
C	 0.626018	 -0.337582	 0.258241
O	 2.538288	 0.965419	 -0.381593
C	 -0.267326	 0.883135	 0.076490
H	 0.325620	 -1.161483	 -0.378003
H	 0.574537	 -0.713685	 1.275261
C	 -1.726822	 0.642622	 0.463839
H	 -0.210803	 1.217591	 -0.953497
H	 0.129920	 1.693110	 0.675679
C	 -2.311443	 -0.687977	 -0.007079
H	 -2.322741	 1.448530	 0.045932
H	 -1.832639	 0.719372	 1.543820
C	 -3.795708	 -0.826294	 0.315882
H	 -2.166317	 -0.781135	 -1.080063
H	 -1.774741	 -1.514838	 0.447023
H	 -4.185823	 -1.776470	 -0.030036
H	 -4.373685	 -0.039197	 -0.156472
H	 -3.970403	 -0.766744	 1.385036

12 9 6 10 F
