%nprocshared=1
%mem=2GB
#HF/6-31G* nosymm scf=tight 

Mol

0 1
H	 -2.498997	 1.199667	 -1.031155
N	 -1.509354	 1.205906	 -0.877722
C	 -0.831732	 0.371720	 -1.854486
H	 -1.347373	 0.842852	 0.041551
C	 0.657980	 0.363601	 -1.582777
H	 -1.184038	 -0.660580	 -1.869915
H	 -1.000283	 0.788143	 -2.842901
O	 0.874168	 -0.245412	 -0.342030
H	 1.180579	 -0.185747	 -2.365558
H	 1.033410	 1.384475	 -1.572506
C	 2.202317	 -0.244239	 0.074611
H	 2.711377	 -1.041390	 -0.449894
H	 2.692099	 0.699270	 -0.159667
H	 2.283185	 -0.418429	 1.145558

8 5 3 6 F
6 3 2 4 F
11 8 5 3 F
