%nprocshared=1
%mem=2GB
#HF/6-31G* nosymm scf=tight opt=ModRedundant

Mol

0 1
O	 -0.682937	 1.318834	 -0.186099
C	 -0.860635	 0.152188	 -0.042321
C	 -2.173363	 -0.477127	 0.338347
O	 0.083258	 -0.765189	 -0.202595
H	 -2.477673	 -1.180929	 -0.427595
H	 -2.923125	 0.290956	 0.455536
H	 -2.058825	 -1.029004	 1.264191
C	 0.129700	 -1.857503	 0.712550
C	 -0.829399	 -2.962211	 0.309567
H	 -0.083367	 -1.496414	 1.707215
H	 1.153648	 -2.200300	 0.673578
H	 -0.716633	 -3.808928	 0.979704
H	 -1.855536	 -2.620788	 0.362861
H	 -0.622159	 -3.297485	 -0.700907

8 4 2 1 F
