%nprocshared=4
%mem=2GB
#HF/cc-pVTZ nosymm scf=tight opt=ModRedundant

Mol

0 1
O	 0.623971	 1.347241	 -0.000777
C	 0.485107	 0.171416	 -0.000134
C	 1.606966	 -0.836201	 0.000174
O	 -0.695554	 -0.422406	 0.000602
C	 2.988788	 -0.202529	 -0.000115
H	 1.465110	 -1.474645	 -0.864821
H	 1.465209	 -1.474077	 0.865596
H	 3.131767	 0.419673	 -0.873407
H	 3.750876	 -0.972315	 0.000098
H	 3.131883	 0.420264	 0.872742
C	 -1.818192	 0.334833	 0.430207
C	 -3.036624	 -0.553790	 0.339311
H	 -1.916308	 1.208435	 -0.198711
H	 -1.648901	 0.673981	 1.442454
H	 -3.195460	 -0.887903	 -0.678290
H	 -3.914018	 -0.005156	 0.660890
H	 -2.926581	 -1.425364	 0.972256

11 4 2 3 F
