%nprocshared=4
%mem=2GB
#HF/cc-pVTZ nosymm scf=tight opt=ModRedundant

Mol

0 1
H	 1.469050	 0.585297	 -2.052717
O	 0.631143	 0.432660	 -1.657421
C	 0.700177	 0.619554	 -0.266242
C	 -0.713111	 0.588314	 0.266177
H	 1.155466	 1.576656	 -0.030459
H	 1.284206	 -0.168032	 0.202796
O	 -1.421673	 -0.521378	 -0.196983
H	 -1.244794	 1.469161	 -0.069059
H	 -0.685100	 0.604721	 1.352683
H	 -0.933408	 -1.297830	 0.014544

5 3 4 7 F
