%nprocshared=4
%mem=2GB
#HF/cc-pVTZ nosymm scf=tight opt=ModRedundant

Mol

0 1
H	 -3.436473	 1.252944	 -1.023892
O	 -3.458596	 0.315260	 -0.960865
C	 -3.176635	 -0.080824	 0.355601
C	 -1.763371	 0.265266	 0.799691
H	 -3.321825	 -1.153438	 0.379502
H	 -3.895468	 0.357385	 1.043382
C	 -0.673390	 -0.426948	 -0.013392
H	 -1.631049	 1.344913	 0.747560
H	 -1.664587	 -0.001624	 1.849167
C	 0.737842	 -0.043159	 0.423759
H	 -0.806103	 -0.190518	 -1.063345
H	 -0.797221	 -1.503753	 0.074146
C	 1.796498	 -0.373278	 -0.626630
H	 0.759569	 1.018280	 0.651276
H	 0.981691	 -0.558813	 1.350309
C	 2.010116	 -1.866930	 -0.878065
H	 2.742084	 0.079277	 -0.336954
H	 1.512339	 0.095996	 -1.564529
C	 2.599723	 -2.635056	 0.302396
H	 2.672340	 -1.979718	 -1.731009
H	 1.065535	 -2.320451	 -1.167039
H	 3.542907	 -2.200109	 0.617517
H	 2.787321	 -3.668368	 0.033482
H	 1.934893	 -2.637797	 1.157731

13 10 7 11 F
