%nprocshared=1
%mem=2GB
#HF/6-31G* nosymm scf=tight opt=ModRedundant

Mol

0 1
H	 -2.646374	 -0.642757	 1.268656
C	 -2.083525	 -0.384536	 0.393091
O	 -0.807605	 -0.127164	 0.768327
F	 -2.118945	 -1.383102	 -0.486752
F	 -2.621877	 0.670592	 -0.209486
C	 0.084052	 0.273579	 -0.209957
C	 0.511652	 -0.979898	 -0.962361
Cl	 1.488312	 1.079849	 0.507816
H	 -0.359610	 0.955839	 -0.913845
F	 1.356243	 -0.673020	 -1.923938
F	 -0.553125	 -1.528493	 -1.512572
F	 1.072980	 -1.863241	 -0.173316

9 6 3 2 F
