%nprocshared=4
%mem=2GB
#HF/6-31G* nosymm scf=tight opt=ModRedundant

Mol

0 1
H	 -3.161837	 0.500524	 -0.000234
C	 -2.367097	 -0.232926	 -0.000000
O	 -1.158440	 0.455814	 -0.000122
H	 -2.468853	 -0.861886	 -0.882833
H	 -2.468942	 -0.861421	 0.883154
C	 -0.029776	 -0.365156	 0.000148
C	 -0.422543	 -1.738645	 -0.515530
H	 0.378369	 -0.441882	 1.008825
H	 0.749044	 0.067195	 -0.629471
C	 0.757089	 -2.709299	 -0.549894
H	 -1.212573	 -2.130984	 0.117387
H	 -0.844445	 -1.625542	 -1.509464
H	 1.179144	 -2.855524	 0.440516
H	 0.448649	 -3.680514	 -0.921985
H	 1.550323	 -2.346134	 -1.197424

8 6 3 2 F
