%nprocshared=4
%mem=2GB
#HF/cc-pVTZ nosymm scf=tight opt=ModRedundant

Mol

0 1
O	 3.219313	 0.959291	 -0.614106
C	 2.698710	 0.058177	 -0.050237
C	 1.246364	 -0.005813	 0.348416
O	 3.344101	 -1.038700	 0.312317
C	 0.453207	 1.232821	 -0.049003
H	 0.839270	 -0.907818	 -0.092281
H	 1.216683	 -0.160521	 1.422434
C	 -0.998367	 1.217982	 0.432195
H	 0.481498	 1.345443	 -1.127236
H	 0.951413	 2.105557	 0.354893
C	 -1.882951	 0.151251	 -0.211235
H	 -1.429490	 2.193659	 0.228843
H	 -1.019755	 1.099323	 1.513279
C	 -1.230220	 -0.516158	 -1.418834
H	 -2.123732	 -0.606765	 0.530592
H	 -2.828697	 0.586327	 -0.520766
C	 -2.107404	 -1.579544	 -2.073457
H	 -0.288771	 -0.967046	 -1.114345
H	 -0.978337	 0.242748	 -2.156047
C	 -1.447787	 -2.242922	 -3.277870
H	 -2.359749	 -2.338670	 -1.338085
H	 -3.047688	 -1.129876	 -2.380898
H	 -2.096267	 -2.991425	 -3.718551
H	 -0.521482	 -2.732600	 -2.996294
H	 -1.213976	 -1.514080	 -4.046849
C	 4.720529	 -1.114346	 0.001449
H	 4.874321	 -1.055557	 -1.065852
H	 5.057824	 -2.067950	 0.373977
H	 5.264321	 -0.313596	 0.480350

15 11 8 5 F
