%nprocshared=1
%mem=2GB
#HF/6-31G* nosymm scf=tight opt=ModRedundant

Mol

0 1
H	 2.383636	 -3.220391	 -1.621315
C	 2.436923	 -2.410381	 -0.901041
C	 1.182425	 -1.539800	 -0.958365
H	 2.563208	 -2.852517	 0.083232
H	 3.330120	 -1.832169	 -1.120398
C	 1.217350	 -0.386724	 0.039429
H	 0.299935	 -2.140563	 -0.761682
H	 1.067355	 -1.140162	 -1.964565
N	 0.000003	 0.397874	 -0.023260
H	 1.305953	 -0.786385	 1.046099
H	 2.113115	 0.219426	 -0.132516
C	 -1.217365	 -0.386708	 0.039277
H	 -0.000031	 1.072115	 0.718656
C	 -2.452633	 0.504241	 -0.042481
H	 -1.215291	 -1.074557	 -0.802042
H	 -1.269739	 -1.003477	 0.942735
C	 -3.758029	 -0.289423	 -0.010781
H	 -2.394220	 1.093569	 -0.952170
H	 -2.440793	 1.210787	 0.785871
H	 -3.816659	 -0.981993	 -0.845726
H	 -4.617837	 0.370165	 -0.069296
H	 -3.847478	 -0.867502	 0.904682

10 6 9 12 F
