%nprocshared=4
%mem=2GB
#HF/cc-pVTZ nosymm scf=tight opt=ModRedundant

Mol

0 1
H	 0.559871	 -3.346639	 -0.734483
O	 0.921754	 -2.606501	 -0.270875
C	 0.116995	 -1.562917	 -0.451782
C	 0.626018	 -0.337582	 0.258241
O	 -0.869001	 -1.635093	 -1.100198
C	 -0.267326	 0.883135	 0.076490
H	 0.741926	 -0.606795	 1.301289
H	 1.628560	 -0.149021	 -0.112955
C	 -1.726822	 0.642622	 0.463839
H	 -0.210803	 1.217591	 -0.953497
H	 0.129920	 1.693110	 0.675679
C	 -2.172868	 -0.818269	 0.434158
H	 -2.353497	 1.208677	 -0.218886
H	 -1.911876	 1.054708	 1.453479
C	 -3.660526	 -0.985832	 0.726173
H	 -1.947921	 -1.239768	 -0.541942
H	 -1.605942	 -1.397982	 1.155603
H	 -3.951174	 -2.029553	 0.696958
H	 -4.264174	 -0.453409	 -0.001037
H	 -3.912014	 -0.600035	 1.708552

12 9 6 10 F
