%nprocshared=1
%mem=2GB
#HF/6-31G* nosymm scf=tight 

Mol

0 1
H	 -3.889140	 -0.255304	 4.529701
O	 -3.320488	 -0.290340	 5.285001
C	 -2.534531	 -1.453769	 5.232473
C	 -1.437598	 -1.390949	 4.175346
H	 -2.090408	 -1.553495	 6.214555
H	 -3.161258	 -2.330038	 5.070780
C	 -1.961098	 -1.296453	 2.740115
H	 -0.801500	 -0.535869	 4.388851
H	 -0.817961	 -2.280440	 4.276455
C	 -0.837286	 -1.289793	 1.700010
H	 -2.557087	 -0.394042	 2.636103
H	 -2.626664	 -2.136618	 2.541408
C	 -1.309753	 -1.282496	 0.241564
H	 -0.193548	 -0.429464	 1.874026
H	 -0.215995	 -2.169173	 1.856173
C	 -2.037799	 -0.007733	 -0.193645
H	 -0.441775	 -1.421987	 -0.399507
H	 -1.954171	 -2.143029	 0.068228
C	 -3.489788	 0.042957	 0.286558
H	 -2.017067	 0.064384	 -1.280144
H	 -1.513726	 0.868678	 0.179924
C	 -4.216917	 1.317354	 -0.141063
H	 -4.025645	 -0.823308	 -0.095450
H	 -3.513059	 -0.038752	 1.371301
H	 -4.239342	 1.411634	 -1.223113
H	 -5.243387	 1.322503	 0.212445
H	 -3.726170	 2.201406	 0.256408

14 10 7 4 F
14 10 13 16 F
10 7 4 8 F
8 4 3 2 F
20 16 19 22 F
4 3 2 1 F
