%nprocshared=4
%mem=2GB
#HF/cc-pVTZ nosymm scf=tight opt=ModRedundant

Mol

0 1
H	 0.165373	 -3.406443	 -4.399846
O	 1.101348	 -3.368955	 -4.465995
C	 1.562479	 -2.091869	 -4.111476
C	 1.474160	 -1.807750	 -2.619443
H	 2.596498	 -2.053193	 -4.426579
H	 1.026790	 -1.326495	 -4.669767
C	 2.017794	 -2.927226	 -1.734522
H	 2.007730	 -0.885168	 -2.411350
H	 0.429675	 -1.630621	 -2.374343
C	 1.162857	 -4.192473	 -1.789901
H	 2.078460	 -2.576734	 -0.709593
H	 3.033378	 -3.169300	 -2.043189
C	 1.701674	 -5.372571	 -0.979160
H	 0.155411	 -3.957410	 -1.455199
H	 1.071600	 -4.502028	 -2.827358
C	 3.009841	 -5.968591	 -1.496077
H	 1.853702	 -5.041713	 0.044533
H	 0.944407	 -6.152106	 -0.934145
C	 3.483501	 -7.168232	 -0.679428
H	 3.781425	 -5.201776	 -1.485084
H	 2.898094	 -6.272898	 -2.532375
C	 4.787405	 -7.768073	 -1.195101
H	 3.610487	 -6.868801	 0.357294
H	 2.710250	 -7.931867	 -0.682378
H	 5.589371	 -7.037552	 -1.174452
H	 5.096164	 -8.614511	 -0.592342
H	 4.682460	 -8.112344	 -2.218729

10 13 16 20 F
