%nprocshared=1
%mem=2GB
#HF/6-31G* nosymm scf=tight 

Mol

0 1
H	 -3.161837	 0.500524	 -0.000234
C	 -2.367097	 -0.232926	 -0.000000
O	 -1.158440	 0.455814	 -0.000122
H	 -2.468853	 -0.861886	 -0.882833
H	 -2.468942	 -0.861421	 0.883154
C	 -0.029776	 -0.365156	 0.000148
C	 1.212217	 0.508981	 0.000007
H	 -0.036772	 -1.013236	 -0.877259
H	 -0.036869	 -1.012778	 0.877897
C	 1.874339	 0.583385	 -1.375107
H	 0.933605	 1.502958	 0.336232
H	 1.910636	 0.114977	 0.731902
H	 1.199159	 0.998425	 -2.118275
H	 2.757501	 1.212692	 -1.346071
H	 2.182554	 -0.399633	 -1.720193

6 3 2 4 F
8 6 3 2 F
