%nprocshared=4
%mem=2GB
#HF/cc-pVTZ nosymm scf=tight opt=ModRedundant

Mol

0 1
H	 -2.644180	 -0.653737	 1.272255
C	 -2.092774	 -0.380414	 0.391915
O	 -0.808934	 -0.154049	 0.752536
F	 -2.163230	 -1.351640	 -0.507133
F	 -2.627232	 0.691260	 -0.169301
C	 0.158019	 -1.044194	 0.337873
C	 -0.003802	 -1.225728	 -1.169488
Cl	 -0.012383	 -2.605921	 1.160982
H	 1.155758	 -0.688630	 0.526918
F	 0.899179	 -2.053250	 -1.630850
F	 0.170224	 -0.067255	 -1.760225
F	 -1.186139	 -1.674899	 -1.489763

6 3 2 4 F
