%nprocshared=4
%mem=2GB
#HF/cc-pVTZ nosymm scf=tight opt=ModRedundant

Mol

0 1
H	 -2.514061	 1.384744	 1.918068
O	 -1.634952	 1.275935	 2.233949
C	 -0.729447	 1.545644	 1.208793
C	 -0.793473	 0.591216	 0.050087
H	 0.258195	 1.501978	 1.652594
H	 -0.856821	 2.560219	 0.835815
C	 -1.534243	 -0.493009	 -0.013340
H	 -0.160487	 0.852264	 -0.782037
H	 -1.101195	 -1.466332	 -0.144046
H	 -2.604242	 -0.437780	 0.050785

3 4 7 9 F
