%nprocshared=1
%mem=2GB
#HF/6-31G* nosymm scf=tight opt=ModRedundant

Mol

0 1
H	 -3.420663	 1.227371	 -1.044276
O	 -3.452007	 0.283848	 -0.965577
C	 -3.181085	 -0.079926	 0.364119
C	 -1.765924	 0.277073	 0.805136
H	 -3.327791	 -1.152017	 0.410903
H	 -3.905698	 0.375695	 1.036898
C	 -0.677594	 -0.417312	 -0.014550
H	 -1.637766	 1.358238	 0.744969
H	 -1.659588	 0.017670	 1.857098
C	 0.472841	 -0.948636	 0.842988
H	 -0.292344	 0.276229	 -0.755693
H	 -1.123548	 -1.240683	 -0.570049
C	 1.555404	 -1.647560	 0.016158
H	 0.907312	 -0.123519	 1.402305
H	 0.081191	 -1.646018	 1.582496
C	 2.686320	 -2.275031	 0.839239
H	 1.979383	 -0.938911	 -0.693599
H	 1.087933	 -2.428962	 -0.579408
C	 3.557962	 -1.268848	 1.593057
H	 3.320111	 -2.851677	 0.169853
H	 2.264539	 -2.987639	 1.545281
H	 3.983556	 -0.535372	 0.913335
H	 4.380639	 -1.770383	 2.093560
H	 2.996497	 -0.731616	 2.350224

11 7 4 3 F
