%nprocshared=4
%mem=2GB
#HF/cc-pVTZ nosymm scf=tight opt=ModRedundant

Mol

0 1
O	 -0.427360	 -1.392182	 -0.665010
C	 0.595354	 -1.297218	 -0.076775
C	 1.246364	 -0.005813	 0.348416
O	 1.317782	 -2.342573	 0.292610
C	 0.453207	 1.232821	 -0.049003
H	 1.394842	 -0.066917	 1.419758
H	 2.239873	 0.009843	 -0.088647
C	 -0.998367	 1.217982	 0.432195
H	 0.481498	 1.345443	 -1.127236
H	 0.951413	 2.105557	 0.354893
C	 -1.425126	 -0.053813	 1.163509
H	 -1.640399	 1.351321	 -0.433357
H	 -1.175605	 2.078675	 1.073345
C	 -0.436018	 -0.480678	 2.244823
H	 -2.402172	 0.105152	 1.614046
H	 -1.544319	 -0.869736	 0.456687
C	 0.901195	 -0.962444	 1.689363
H	 -0.879661	 -1.271423	 2.845026
H	 -0.262407	 0.352564	 2.921899
C	 1.883201	 -1.388802	 2.775484
H	 0.729355	 -1.795170	 1.012784
H	 1.347260	 -0.172240	 1.091483
H	 2.820950	 -1.724557	 2.347840
H	 1.480627	 -2.202627	 3.369397
H	 2.102576	 -0.567142	 3.449248
C	 0.824678	 -3.623490	 -0.043565
H	 -0.139967	 -3.792406	 0.411591
H	 1.544729	 -4.329140	 0.337866
H	 0.731980	 -3.727573	 -1.114467

11 8 5 9 F
