%nprocshared=4
%mem=2GB
#HF/cc-pVTZ nosymm scf=tight opt=ModRedundant

Mol

0 1
H	 1.036595	 -5.296396	 -1.925443
O	 1.929043	 -5.085505	 -2.127659
C	 2.002670	 -3.828294	 -2.746749
C	 1.752877	 -2.667998	 -1.794908
H	 3.003539	 -3.756033	 -3.150507
H	 1.312186	 -3.777805	 -3.586470
C	 0.336226	 -2.616259	 -1.227217
H	 2.470674	 -2.727241	 -0.982249
H	 1.959140	 -1.745146	 -2.331749
C	 0.113298	 -1.420414	 -0.302504
H	 0.133031	 -3.534306	 -0.686012
H	 -0.378831	 -2.571330	 -2.046950
C	 -1.311023	 -1.277304	 0.237018
H	 0.808571	 -1.479563	 0.531357
H	 0.367921	 -0.513488	 -0.843909
C	 -2.041121	 -0.006551	 -0.194127
H	 -1.888548	 -2.136293	 -0.093331
H	 -1.289731	 -1.328757	 1.323321
C	 -3.489218	 0.042606	 0.286507
H	 -2.022185	 0.066287	 -1.279394
H	 -1.518764	 0.869305	 0.178730
C	 -4.219984	 1.311773	 -0.139038
H	 -4.022855	 -0.824300	 -0.093339
H	 -3.510372	 -0.038577	 1.370031
H	 -4.244251	 1.405725	 -1.219696
H	 -5.244345	 1.313233	 0.215630
H	 -3.732090	 2.196311	 0.257073

14 10 13 16 F
