%nprocshared=4
%mem=2GB
#HF/cc-pVTZ nosymm scf=tight opt=ModRedundant

Mol

0 1
H	 2.769162	 1.908420	 -1.180579
N	 2.004182	 1.269541	 -1.228091
C	 1.860978	 0.530248	 0.016256
H	 2.183981	 0.651080	 -1.991324
C	 0.644130	 -0.381765	 -0.031064
H	 1.736776	 1.251043	 0.817465
H	 2.743670	 -0.061708	 0.262019
C	 -0.678115	 0.376691	 0.025731
H	 0.693998	 -0.977147	 -0.936845
H	 0.693309	 -1.082142	 0.800523
C	 -1.900706	 -0.535531	 -0.022488
H	 -0.725296	 1.079516	 -0.802982
H	 -0.715474	 0.974884	 0.933278
C	 -3.220513	 0.226854	 0.028039
H	 -1.865036	 -1.134397	 -0.928236
H	 -1.857948	 -1.236381	 0.806820
H	 -3.309098	 0.911849	 -0.808725
H	 -4.066838	 -0.449485	 -0.008086
H	 -3.301685	 0.809374	 0.939860

6 3 5 9 F
