%nprocshared=4
%mem=2GB
#HF/cc-pVTZ nosymm scf=tight opt=ModRedundant

Mol

0 1
H	 -3.162190	 0.493205	 -0.000107
C	 -2.363908	 -0.234727	 0.000005
O	 -1.158738	 0.454634	 -0.000087
H	 -2.464314	 -0.863616	 -0.882153
H	 -2.464327	 -0.863359	 0.882345
C	 -0.028611	 -0.359694	 0.000037
C	 0.925807	 0.110794	 -1.078907
H	 -0.314904	 -1.396565	 -0.177655
H	 0.458550	 -0.322989	 0.974701
C	 2.193674	 -0.733427	 -1.143360
H	 0.409913	 0.083424	 -2.032338
H	 1.177252	 1.148438	 -0.889109
H	 1.966324	 -1.772593	 -1.356749
H	 2.856636	 -0.375917	 -1.921620
H	 2.738939	 -0.700224	 -0.205996

8 6 3 2 F
