%nprocshared=4
%mem=2GB
#HF/cc-pVTZ nosymm scf=tight opt=ModRedundant

Mol

0 1
H	 1.342132	 1.154632	 6.475381
C	 0.879604	 0.270293	 6.052439
C	 0.105044	 0.606962	 4.782780
H	 1.665547	 -0.448751	 5.848759
H	 0.228674	 -0.156437	 6.808741
C	 -0.570244	 -0.614922	 4.163948
H	 0.779191	 1.052143	 4.060092
H	 -0.649709	 1.356083	 5.010794
C	 -1.358430	 -0.307108	 2.894735
H	 0.175996	 -1.367629	 3.941716
H	 -1.250759	 -1.049260	 4.890608
C	 -0.504394	 0.007582	 1.678151
H	 -1.967809	 -1.165054	 2.622060
H	 -2.056273	 0.508784	 3.058606
C	 -1.180025	 0.697761	 0.509157
O	 0.645160	 -0.291286	 1.628369
C	 -2.285431	 -0.137488	 -0.145671
H	 -0.408054	 0.926334	 -0.213100
H	 -1.598563	 1.637147	 0.860690
C	 -3.646545	 0.082747	 0.508954
H	 -2.348635	 0.118247	 -1.199806
H	 -2.034895	 -1.192387	 -0.096473
C	 -4.757412	 -0.737227	 -0.138149
H	 -3.900211	 1.137405	 0.459735
H	 -3.580878	 -0.166775	 1.564416
H	 -4.867876	 -0.486707	 -1.187777
H	 -4.549650	 -1.800049	 -0.072540
H	 -5.709585	 -0.556397	 0.346597

12 15 17 21 F
