%nprocshared=4
%mem=2GB
#HF/cc-pVTZ nosymm scf=tight opt=ModRedundant

Mol

0 1
H	 -3.158673	 -2.810111	 0.537118
O	 -2.870024	 -2.034158	 0.093527
C	 -1.605942	 -1.649985	 0.565677
C	 -1.175688	 -0.398187	 -0.171891
H	 -1.642099	 -1.455691	 1.635591
H	 -0.880706	 -2.444282	 0.401498
C	 0.196029	 0.106276	 0.266738
H	 -1.924545	 0.370689	 -0.009839
H	 -1.172450	 -0.610330	 -1.236270
C	 1.330220	 -0.826136	 -0.155230
H	 0.359542	 1.097229	 -0.145561
H	 0.212134	 0.218135	 1.348778
C	 2.719700	 -0.407669	 0.328325
H	 1.339388	 -0.911200	 -1.239363
H	 1.119001	 -1.821953	 0.224128
C	 3.241564	 0.893452	 -0.276737
H	 3.418299	 -1.204729	 0.093035
H	 2.711776	 -0.323368	 1.411960
H	 3.254204	 0.841071	 -1.360784
H	 2.634460	 1.745075	 0.005842
H	 4.254264	 1.092401	 0.054971

8 4 7 10 F
