%nprocshared=4
%mem=2GB
#HF/6-31G* nosymm scf=tight opt=ModRedundant

Mol

0 1
O	 3.225979	 0.970355	 -0.599647
C	 2.701189	 0.057885	 -0.047330
C	 1.245376	 -0.013843	 0.345420
O	 3.347903	 -1.046386	 0.304773
C	 0.455112	 1.231400	 -0.050772
H	 0.838542	 -0.913825	 -0.103701
H	 1.208210	 -0.175333	 1.419774
C	 -0.998893	 1.219485	 0.433193
H	 0.482531	 1.345121	 -1.130325
H	 0.957290	 2.103070	 0.354729
C	 -1.883438	 0.145884	 -0.207175
H	 -1.431207	 2.195402	 0.224832
H	 -1.019646	 1.105716	 1.516076
C	 -3.347647	 0.245583	 0.225435
H	 -1.822183	 0.231698	 -1.291012
H	 -1.510341	 -0.844814	 0.042401
C	 -3.988288	 -1.113259	 0.513984
H	 -3.918194	 0.753430	 -0.550325
H	 -3.418864	 0.871264	 1.113776
C	 -5.451540	 -1.005159	 0.941662
H	 -3.917092	 -1.740113	 -0.372372
H	 -3.421937	 -1.620560	 1.292234
H	 -5.877457	 -1.984067	 1.138994
H	 -6.051894	 -0.532995	 0.169113
H	 -5.552873	 -0.412000	 1.846188
C	 4.728119	 -1.109107	 -0.004993
H	 4.882018	 -1.033965	 -1.071845
H	 5.068212	 -2.067527	 0.355250
H	 5.265056	 -0.311663	 0.488280

17 14 11 15 F
