%nprocshared=1
%mem=2GB
#HF/6-31G* nosymm scf=tight 

Mol

0 1
O	 -0.750612	 -1.332194	 0.095278
C	 0.405764	 -1.268246	 0.363170
C	 1.245376	 -0.013843	 0.345420
O	 1.126917	 -2.323021	 0.722362
C	 0.455112	 1.231400	 -0.050772
H	 1.692330	 0.083916	 1.329221
H	 2.071170	 -0.187526	 -0.339851
C	 -0.998893	 1.219485	 0.433193
H	 0.482531	 1.345121	 -1.130325
H	 0.957290	 2.103070	 0.354729
C	 -1.883438	 0.145884	 -0.207175
H	 -1.431207	 2.195402	 0.224832
H	 -1.019646	 1.105716	 1.516076
C	 -3.347647	 0.245583	 0.225435
H	 -1.822183	 0.231698	 -1.291012
H	 -1.510341	 -0.844814	 0.042401
C	 -4.239992	 -0.825570	 -0.404234
H	 -3.732888	 1.230466	 -0.033079
H	 -3.408585	 0.170602	 1.310038
C	 -5.701275	 -0.716658	 0.029921
H	 -4.179496	 -0.752714	 -1.488058
H	 -3.859041	 -1.810759	 -0.143352
H	 -6.308102	 -1.488908	 -0.432678
H	 -6.122175	 0.245478	 -0.248167
H	 -5.799072	 -0.820114	 1.106957
C	 0.458110	 -3.569806	 0.778128
H	 -0.348738	 -3.536532	 1.496037
H	 1.201106	 -4.289896	 1.083796
H	 0.059933	 -3.831322	 -0.191718

21 17 14 11 F
17 14 11 15 F
15 11 8 5 F
11 8 5 9 F
2 4 26 27 F
1 2 4 26 F
6 3 2 1 F
