%nprocshared=1
%mem=2GB
#HF/6-31G* nosymm scf=tight 

Mol

0 1
O	 -0.682937	 1.318834	 -0.186099
C	 -0.860635	 0.152188	 -0.042321
C	 -2.173363	 -0.477127	 0.338347
O	 0.083258	 -0.765189	 -0.202595
H	 -2.477673	 -1.180929	 -0.427595
H	 -2.923125	 0.290956	 0.455536
H	 -2.058825	 -1.029004	 1.264191
C	 0.269200	 -1.733939	 0.826845
C	 -0.699146	 -2.893177	 0.681524
H	 0.165647	 -1.254372	 1.788319
H	 1.290604	 -2.065058	 0.706040
H	 -0.483484	 -3.647978	 1.431522
H	 -1.720982	 -2.561664	 0.816871
H	 -0.603989	 -3.349187	 -0.297974

10 8 4 2 F
