%nprocshared=4
%mem=2GB
#HF/cc-pVTZ nosymm scf=tight opt=ModRedundant

Mol

0 1
H	 -3.436473	 1.252944	 -1.023892
O	 -3.458596	 0.315260	 -0.960865
C	 -3.176635	 -0.080824	 0.355601
C	 -1.763371	 0.265266	 0.799691
H	 -3.321825	 -1.153438	 0.379502
H	 -3.895468	 0.357385	 1.043382
C	 -0.673390	 -0.426948	 -0.013392
H	 -1.631049	 1.344913	 0.747560
H	 -1.664587	 -0.001624	 1.849167
C	 0.731420	 0.068028	 0.320492
H	 -0.868930	 -0.281563	 -1.070057
H	 -0.728706	 -1.498757	 0.161742
C	 1.817995	 -0.632316	 -0.493094
H	 0.776031	 1.139949	 0.153504
H	 0.925514	 -0.083964	 1.380248
C	 3.249780	 -0.228140	 -0.137451
H	 1.647300	 -0.449213	 -1.551482
H	 1.718765	 -1.705203	 -0.352785
C	 3.604384	 1.220237	 -0.465480
H	 3.933064	 -0.881980	 -0.670737
H	 3.421342	 -0.410102	 0.920319
H	 3.436939	 1.433313	 -1.516497
H	 4.648613	 1.418169	 -0.251820
H	 3.016012	 1.923016	 0.112037

11 7 4 3 F
