%nprocshared=4
%mem=2GB
#HF/cc-pVTZ nosymm scf=tight opt=ModRedundant

Mol

0 1
O	 -2.817697	 1.304178	 0.001046
C	 -2.664672	 0.129869	 0.003507
C	 -3.797908	 -0.860100	 -0.001145
O	 -1.481217	 -0.452708	 0.001092
H	 -4.408836	 -0.679689	 -0.875387
H	 -3.443486	 -1.878443	 -0.002770
H	 -4.412123	 -0.683688	 0.871605
C	 -0.332055	 0.384012	 -0.000250
C	 0.892252	 -0.506059	 -0.000295
H	 -0.360822	 1.020205	 -0.874146
H	 -0.359817	 1.021310	 0.872861
C	 1.619353	 -0.483052	 1.341031
H	 1.562091	 -0.182983	 -0.790616
H	 0.590035	 -1.520207	 -0.240782
C	 2.857967	 -1.374339	 1.364873
H	 1.909206	 0.537435	 1.578873
H	 0.938256	 -0.797219	 2.128038
C	 3.584177	 -1.352552	 2.705452
H	 3.540141	 -1.060254	 0.579987
H	 2.569536	 -2.394410	 1.127493
H	 3.915734	 -0.350179	 2.954780
H	 4.457089	 -1.994624	 2.688887
H	 2.937492	 -1.694369	 3.506583

13 9 8 10 F
