%nprocshared=4
%mem=2GB
#HF/6-31G* nosymm scf=tight opt=ModRedundant

Mol

0 1
O	 3.225979	 0.970355	 -0.599647
C	 2.701189	 0.057885	 -0.047330
C	 1.245376	 -0.013843	 0.345420
O	 3.347903	 -1.046386	 0.304773
C	 0.429845	 -0.950761	 -0.542956
H	 1.211390	 -0.310284	 1.388568
H	 0.851400	 0.998746	 0.311605
C	 -1.069045	 -0.954536	 -0.223880
H	 0.826025	 -1.958405	 -0.460412
H	 0.572044	 -0.657190	 -1.577373
C	 -1.435294	 -1.526949	 1.148459
H	 -1.574950	 -1.537792	 -0.989775
H	 -1.460354	 0.058221	 -0.308805
C	 -2.946265	 -1.610452	 1.374279
H	 -1.001350	 -2.520638	 1.248924
H	 -0.995513	 -0.920407	 1.936920
C	 -3.323989	 -2.176154	 2.744475
H	 -3.392739	 -2.227360	 0.596256
H	 -3.382283	 -0.618846	 1.263355
C	 -4.834628	 -2.259793	 2.960513
H	 -2.888247	 -3.166620	 2.857385
H	 -2.882227	 -1.558327	 3.523524
H	 -5.070533	 -2.664253	 3.939986
H	 -5.302092	 -2.899537	 2.217276
H	 -5.296000	 -1.278905	 2.887916
C	 4.728119	 -1.109107	 -0.004993
H	 4.882018	 -1.033965	 -1.071845
H	 5.068212	 -2.067527	 0.355250
H	 5.265056	 -0.311663	 0.488280

6 3 2 1 F
