%nprocshared=4
%mem=2GB
#HF/cc-pVTZ nosymm scf=tight opt=ModRedundant

Mol

0 1
O	 1.457905	 0.792880	 0.917715
C	 1.121787	 0.124983	 0.000110
C	 -0.293633	 -0.291510	 -0.307434
O	 1.969101	 -0.353489	 -0.896273
C	 -1.300266	 0.846589	 -0.221726
H	 -0.288774	 -0.738307	 -1.296287
H	 -0.547990	 -1.093642	 0.377655
C	 -0.896120	 2.045483	 -1.074737
H	 -1.408451	 1.151854	 0.812996
H	 -2.274872	 0.486879	 -0.532043
C	 -1.896996	 3.192953	 -0.994427
H	 0.082561	 2.399335	 -0.761350
H	 -0.789098	 1.733422	 -2.110305
H	 -2.000350	 3.550466	 0.024439
H	 -1.584741	 4.029326	 -1.608963
H	 -2.878283	 2.879793	 -1.334409
C	 3.226978	 0.281687	 -1.004047
H	 3.107866	 1.319775	 -1.276836
H	 3.762124	 -0.246898	 -1.776112
H	 3.765395	 0.222432	 -0.069799

1 2 4 17 F
