%nprocshared=4
%mem=2GB
#HF/cc-pVTZ nosymm scf=tight opt=ModRedundant

Mol

0 1
H	 -3.498985	 1.253143	 -1.010443
O	 -3.458596	 0.315260	 -0.960865
C	 -3.176635	 -0.080824	 0.355601
C	 -1.763371	 0.265266	 0.799691
H	 -3.321825	 -1.153438	 0.379502
H	 -3.895468	 0.357385	 1.043382
C	 -0.681785	 -0.176652	 -0.181738
H	 -1.696781	 1.340260	 0.960370
H	 -1.591481	 -0.197011	 1.768784
C	 -0.544033	 -1.693581	 -0.281350
H	 0.267482	 0.256374	 0.113717
H	 -0.908963	 0.229664	 -1.164491
C	 -1.885813	 -2.402776	 -0.453732
H	 0.111824	 -1.933761	 -1.112648
H	 -0.053325	 -2.071183	 0.613345
C	 -2.820094	 -2.315319	 0.754291
H	 -1.710008	 -3.448664	 -0.694687
H	 -2.395123	 -1.976634	 -1.313748
C	 -2.323732	 -3.046380	 1.999409
H	 -3.784664	 -2.726126	 0.472126
H	 -2.996018	 -1.270413	 0.996453
H	 -2.133370	 -4.093390	 1.785843
H	 -3.062228	 -3.001073	 2.791755
H	 -1.407382	 -2.615762	 2.384733

7 4 3 2 F
