%nprocshared=4
%mem=2GB
#HF/cc-pVTZ nosymm scf=tight opt=ModRedundant

Mol

0 1
H	 -3.436473	 1.252944	 -1.023892
O	 -3.458596	 0.315260	 -0.960865
C	 -3.176635	 -0.080824	 0.355601
C	 -1.763371	 0.265266	 0.799691
H	 -3.321825	 -1.153438	 0.379502
H	 -3.895468	 0.357385	 1.043382
C	 -0.673390	 -0.426948	 -0.013392
H	 -1.631049	 1.344913	 0.747560
H	 -1.664587	 -0.001624	 1.849167
C	 0.737842	 -0.043159	 0.423759
H	 -0.806103	 -0.190518	 -1.063345
H	 -0.797221	 -1.503753	 0.074146
C	 1.302511	 1.139817	 -0.360311
H	 0.727582	 0.186314	 1.484950
H	 1.398625	 -0.899118	 0.303109
C	 1.566016	 0.863519	 -1.841551
H	 2.224070	 1.474587	 0.110335
H	 0.605999	 1.970292	 -0.284146
C	 2.673071	 -0.151922	 -2.114413
H	 1.827939	 1.800363	 -2.323728
H	 0.645767	 0.528226	 -2.312867
H	 3.604948	 0.154179	 -1.649674
H	 2.852393	 -0.248252	 -3.179217
H	 2.423194	 -1.136150	 -1.736971

13 10 7 11 F
