%nprocshared=4
%mem=2GB
#HF/cc-pVTZ nosymm scf=tight opt=ModRedundant

Mol

0 1
H	 2.444575	 -0.671278	 0.178978
C	 1.726754	 0.130709	 0.216157
O	 0.462329	 -0.453336	 -0.000137
H	 1.959941	 0.852781	 -0.556148
H	 1.775348	 0.606740	 1.187379
C	 -0.590565	 0.341382	 0.000062
O	 -1.693898	 -0.053880	 0.000252
H	 -0.340426	 1.403822	 0.000200

2 3 6 7 F
