%nprocshared=4
%mem=2GB
#HF/6-31G* nosymm scf=tight opt=ModRedundant

Mol

0 1
O	 -0.988096	 -1.408613	 0.050699
C	 -0.676749	 -0.249230	 -0.009274
C	 -1.746085	 0.827156	 -0.009539
N	 0.623947	 0.147590	 -0.102813
H	 -1.701500	 1.431508	 -0.908902
H	 -2.703425	 0.330732	 0.036390
H	 -1.647323	 1.487769	 0.845106
C	 1.099821	 1.184540	 0.791701
C	 1.475476	 -0.128947	 -1.238891
H	 2.113719	 0.956735	 1.101755
H	 0.463174	 1.230598	 1.658016
H	 1.101024	 2.156989	 0.304093
H	 2.499626	 -0.226082	 -0.898713
H	 1.203685	 -1.053390	 -1.723110
H	 1.441510	 0.670932	 -1.976354

8 4 2 3 F
