%nprocshared=4
%mem=2GB
#HF/cc-pVTZ nosymm scf=tight opt=ModRedundant

Mol

0 1
H	 -2.777562	 -1.373990	 0.855948
O	 -1.954374	 -1.051790	 0.538796
C	 -2.021813	 0.336996	 0.342658
C	 -0.669613	 0.837286	 -0.127252
H	 -2.776589	 0.575889	 -0.402303
H	 -2.301381	 0.838069	 1.267402
C	 0.490865	 -0.082543	 0.241244
H	 -0.708709	 0.967192	 -1.204587
H	 -0.507562	 1.822272	 0.303070
C	 1.839800	 0.429565	 -0.255472
H	 0.305636	 -1.070211	 -0.165276
H	 0.527397	 -0.195943	 1.322876
C	 3.001144	 -0.485193	 0.119072
H	 1.804373	 0.541073	 -1.335756
H	 2.020437	 1.423114	 0.146921
H	 2.866892	 -1.477297	 -0.298806
H	 3.943543	 -0.095749	 -0.249061
H	 3.085064	 -0.590459	 1.195790

2 3 4 8 F
