%nprocshared=4
%mem=2GB
#HF/cc-pVTZ nosymm scf=tight opt=ModRedundant

Mol

0 1
H	 0.559871	 -3.346639	 -0.734483
O	 0.921754	 -2.606501	 -0.270875
C	 0.116995	 -1.562917	 -0.451782
C	 0.626018	 -0.337582	 0.258241
O	 -0.869001	 -1.635093	 -1.100198
C	 -0.267326	 0.883135	 0.076490
H	 0.741926	 -0.606795	 1.301289
H	 1.628560	 -0.149021	 -0.112955
C	 -1.726822	 0.642622	 0.463839
H	 -0.210803	 1.217591	 -0.953497
H	 0.129920	 1.693110	 0.675679
C	 -2.169174	 1.305951	 1.767051
H	 -1.878729	 -0.428917	 0.553183
H	 -2.375533	 0.971771	 -0.345037
C	 -3.599525	 0.945633	 2.155307
H	 -1.493901	 1.009065	 2.565111
H	 -2.089052	 2.385160	 1.684316
H	 -3.887480	 1.426563	 3.082923
H	 -3.710506	 -0.125121	 2.288974
H	 -4.302590	 1.256501	 1.389660

12 9 6 10 F
