%nprocshared=4
%mem=2GB
#HF/6-31G* nosymm scf=tight opt=ModRedundant

Mol

0 1
O	 1.846825	 1.296220	 0.000415
C	 1.705091	 0.115954	 0.001797
C	 0.381791	 -0.609817	 0.001258
O	 2.721346	 -0.737485	 -0.000216
C	 -0.823008	 0.326187	 0.001381
H	 0.371250	 -1.265087	 -0.865474
H	 0.370908	 -1.265746	 0.867490
C	 -2.126111	 -0.405130	 0.327201
H	 -0.902323	 0.807045	 -0.968502
H	 -0.657099	 1.122568	 0.720102
C	 -3.345256	 0.518738	 0.330761
H	 -2.284972	 -1.204736	 -0.394872
H	 -2.039400	 -0.887174	 1.299825
C	 -4.646798	 -0.212312	 0.657571
H	 -3.434777	 0.999117	 -0.641022
H	 -3.188454	 1.317526	 1.052210
H	 -4.849439	 -0.995774	 -0.067231
H	 -5.492014	 0.468890	 0.652659
H	 -4.600967	 -0.675255	 1.639352
C	 4.024888	 -0.184556	 -0.001949
H	 4.179030	 0.422472	 -0.882452
H	 4.701782	 -1.024608	 -0.003642
H	 4.181981	 0.421185	 0.878906

9 5 3 6 F
