%nprocshared=4
%mem=2GB
#HF/6-31G* nosymm scf=tight opt=ModRedundant

Mol

0 1
H	 -3.135461	 -1.215070	 0.001379
O	 -2.310168	 -0.871793	 -0.309793
C	 -2.026376	 0.340750	 0.341611
C	 -0.673256	 0.843270	 -0.132153
H	 -2.792215	 1.080697	 0.115987
H	 -2.013526	 0.200402	 1.421792
C	 0.486613	 -0.083066	 0.235839
H	 -0.715586	 0.970948	 -1.210718
H	 -0.508072	 1.829858	 0.297090
C	 0.793056	 -1.114939	 -0.850966
H	 0.254561	 -0.591121	 1.166186
H	 1.377506	 0.515251	 0.423367
C	 1.955944	 -2.036880	 -0.485742
H	 -0.095694	 -1.713772	 -1.038690
H	 1.018509	 -0.603244	 -1.784659
H	 1.745760	 -2.588980	 0.425795
H	 2.148955	 -2.759080	 -1.273219
H	 2.869396	 -1.470983	 -0.324883

10 7 4 8 F
