%nprocshared=4
%mem=2GB
#HF/cc-pVTZ nosymm scf=tight opt=ModRedundant

Mol

0 1
O	 1.216069	 1.304886	 0.000821
C	 1.121787	 0.124983	 0.000110
C	 -0.170912	 -0.649867	 -0.000147
O	 2.167739	 -0.685178	 -0.000678
C	 -1.413045	 0.229353	 0.001137
H	 -0.152877	 -1.303435	 -0.866175
H	 -0.152278	 -1.305116	 0.864586
C	 -1.073754	 1.714841	 -0.079579
H	 -1.990122	 0.032645	 0.897702
H	 -2.049011	 -0.047934	 -0.832052
C	 -2.311435	 2.605362	 -0.076684
H	 -0.433707	 1.985941	 0.755936
H	 -0.495439	 1.905754	 -0.979768
H	 -2.893101	 2.462714	 0.827695
H	 -2.040657	 3.653216	 -0.134637
H	 -2.955218	 2.382060	 -0.920639
C	 3.449556	 -0.089977	 -0.000570
H	 3.585694	 0.522473	 -0.879546
H	 4.155805	 -0.904274	 -0.001389
H	 3.586173	 0.521118	 0.879272

9 5 3 6 F
