%nprocshared=4
%mem=2GB
#HF/cc-pVTZ nosymm scf=tight opt=ModRedundant

Mol

0 1
O	 -2.701368	 4.505595	 3.055361
C	 -1.799735	 3.909145	 3.546701
C	 -1.301035	 2.591039	 2.990169
C	 -1.083805	 4.431770	 4.771662
C	 -2.051241	 2.101941	 1.759396
H	 -0.241155	 2.706667	 2.774870
H	 -1.353756	 1.856715	 3.790790
C	 -1.514838	 0.772845	 1.235099
H	 -1.990229	 2.855944	 0.982948
H	 -3.103869	 2.005376	 1.999777
C	 -2.258482	 0.271340	 0.000669
H	 -0.458195	 0.876535	 0.998398
H	 -1.577292	 0.022007	 2.019703
C	 -2.305585	 1.289336	 -1.135201
H	 -3.273341	 -0.001162	 0.279805
H	 -1.787028	 -0.641334	 -0.355539
C	 -3.572900	 2.137654	 -1.127623
H	 -1.437227	 1.939525	 -1.070796
H	 -2.226298	 0.769809	 -2.086371
H	 -3.663669	 2.697063	 -0.202494
H	 -3.574663	 2.849112	 -1.945453
H	 -4.458537	 1.518747	 -1.225834
H	 -0.029691	 4.570626	 4.558096
H	 -1.519310	 5.370432	 5.077670
H	 -1.156490	 3.714342	 5.581635

15 11 14 18 F
