%nprocshared=4
%mem=2GB
#HF/cc-pVTZ nosymm scf=tight opt=ModRedundant

Mol

0 1
O	 3.285882	 -2.847607	 -0.566067
C	 2.574127	 -2.072921	 -0.023620
C	 2.955086	 -0.676072	 0.395916
O	 1.317782	 -2.342573	 0.292610
C	 4.393572	 -0.310536	 0.051829
H	 2.242988	 -0.003896	 -0.067386
H	 2.778986	 -0.604569	 1.464656
C	 4.745289	 -0.507123	 -1.423463
H	 5.068503	 -0.891413	 0.670797
H	 4.559840	 0.725365	 0.320667
C	 3.729265	 0.061654	 -2.412703
H	 4.846103	 -1.572899	 -1.605462
H	 5.723146	 -0.074326	 -1.622865
C	 3.315858	 1.494169	 -2.085929
H	 4.151351	 0.030090	 -3.414560
H	 2.840517	 -0.562125	 -2.436403
C	 2.493955	 1.612500	 -0.805599
H	 2.744307	 1.901084	 -2.916645
H	 4.205540	 2.113524	 -1.997997
C	 2.083260	 3.046212	 -0.486889
H	 1.604516	 0.994320	 -0.892043
H	 3.064924	 1.208764	 0.026175
H	 1.502196	 3.094816	 0.426887
H	 1.480366	 3.467064	 -1.284706
H	 2.952310	 3.683334	 -0.360251
C	 0.824678	 -3.623490	 -0.043565
H	 -0.139967	 -3.792406	 0.411591
H	 1.544729	 -4.329140	 0.337866
H	 0.731980	 -3.727573	 -1.114467

1 2 4 26 F
