%nprocshared=4
%mem=2GB
#HF/cc-pVTZ nosymm scf=tight opt=ModRedundant

Mol

0 1
O	 0.496141	 1.205094	 0.577132
C	 0.485107	 0.171416	 -0.000134
C	 1.606966	 -0.836201	 0.000174
O	 -0.533035	 -0.241686	 -0.734517
C	 2.988788	 -0.202529	 -0.000115
H	 1.465110	 -1.474645	 -0.864821
H	 1.465209	 -1.474077	 0.865596
H	 3.131767	 0.419673	 -0.873407
H	 3.750876	 -0.972315	 0.000098
H	 3.131883	 0.420264	 0.872742
C	 -1.668911	 0.606260	 -0.829715
C	 -2.683439	 -0.078650	 -1.715219
H	 -1.364573	 1.559455	 -1.238548
H	 -2.062059	 0.782490	 0.161598
H	 -2.278371	 -0.250743	 -2.704500
H	 -3.565608	 0.543547	 -1.809460
H	 -2.979889	 -1.032093	 -1.296370

4 2 3 6 F
