%nprocshared=4
%mem=2GB
#HF/cc-pVTZ nosymm scf=tight opt=ModRedundant

Mol

0 1
H	 -3.268214	 -0.875720	 0.463107
C	 -2.806015	 0.000007	 0.024886
N	 -1.391133	 0.000016	 0.301321
H	 -3.029448	 0.000055	 -1.045738
H	 -3.268126	 0.875758	 0.463150
C	 -1.047474	 -0.860171	 1.412875
C	 -0.869769	 1.334599	 0.502814
H	 -1.525337	 -0.525845	 2.338468
H	 -1.403869	 -1.861942	 1.204256
C	 0.455349	 -0.896711	 1.618304
H	 -1.096424	 1.935098	 -0.370180
H	 -1.335514	 1.818539	 1.366371
C	 0.633054	 1.298059	 0.708242
H	 0.682004	 -1.497210	 2.491298
H	 0.921095	 -1.380651	 0.754746
N	 0.976713	 0.437872	 1.819797
H	 0.989449	 2.299830	 0.916862
H	 1.110917	 0.963733	 -0.217351
C	 2.391595	 0.437881	 2.096232
H	 2.597366	 -0.166941	 2.970538
H	 2.727948	 1.446475	 2.301575
H	 2.986336	 0.045686	 1.266397

6 3 2 4 F
