%nprocshared=4
%mem=2GB
#HF/cc-pVTZ nosymm scf=tight opt=ModRedundant

Mol

0 1
O	 -1.493385	 -2.666770	 -0.153990
C	 -1.008431	 -1.947147	 -0.965405
C	 -0.883615	 -0.457369	 -0.714350
C	 -0.475442	 -2.476364	 -2.275604
C	 0.376695	 -0.140025	 0.100361
H	 -1.761008	 -0.143296	 -0.163305
H	 -0.860174	 0.082124	 -1.655234
C	 1.630207	 -0.772146	 -0.501001
H	 0.483471	 0.935986	 0.155381
H	 0.252680	 -0.495084	 1.120583
C	 2.907848	 -0.545876	 0.309149
H	 1.772784	 -0.391628	 -1.509394
H	 1.468529	 -1.842059	 -0.599744
C	 3.373802	 0.906639	 0.372125
H	 3.699140	 -1.146831	 -0.127906
H	 2.764321	 -0.923458	 1.318191
H	 3.519798	 1.311927	 -0.623875
H	 4.316899	 0.983758	 0.900700
H	 2.661122	 1.540651	 0.885346
H	 -1.097434	 -2.112003	 -3.087001
H	 -0.483854	 -3.555478	 -2.271974
H	 0.530108	 -2.112602	 -2.454865

3 5 8 12 F
