%nprocshared=4
%mem=2GB
#HF/cc-pVTZ nosymm scf=tight opt=ModRedundant

Mol

0 1
O	 0.336506	 0.977270	 -0.240722
C	 1.121787	 0.124983	 0.000110
C	 1.295977	 -0.553084	 1.334781
O	 1.969101	 -0.353489	 -0.896273
C	 -0.012966	 -0.990804	 1.975869
H	 1.960112	 -1.397387	 1.181295
H	 1.836861	 0.135168	 1.976042
C	 -0.857845	 -1.852584	 1.042154
H	 -0.575657	 -0.113915	 2.275844
H	 0.199972	 -1.537272	 2.887776
C	 -2.173159	 -2.295013	 1.673895
H	 -1.065127	 -1.300956	 0.128929
H	 -0.288752	 -2.729508	 0.744874
H	 -2.780502	 -1.440005	 1.950806
H	 -2.751526	 -2.904439	 0.989229
H	 -1.998525	 -2.879015	 2.571127
C	 3.226978	 0.281687	 -1.004047
H	 3.107866	 1.319775	 -1.276836
H	 3.762124	 -0.246898	 -1.776112
H	 3.765395	 0.222432	 -0.069799

1 2 4 17 F
