%nprocshared=4
%mem=2GB
#HF/cc-pVTZ nosymm scf=tight opt=ModRedundant

Mol

0 1
H	 0.358041	 -2.415741	 -4.480909
O	 1.295892	 -2.461102	 -4.495290
C	 1.845653	 -1.363718	 -3.815007
C	 1.682955	 -1.443106	 -2.304407
H	 2.897821	 -1.357654	 -4.065777
H	 1.420251	 -0.434058	 -4.188122
C	 0.234958	 -1.371006	 -1.824868
H	 2.138195	 -2.365338	 -1.955981
H	 2.248794	 -0.625614	 -1.864031
C	 0.113298	 -1.420414	 -0.302504
H	 -0.327829	 -2.190593	 -2.259092
H	 -0.219738	 -0.451363	 -2.189278
C	 -1.311023	 -1.277304	 0.237018
H	 0.542339	 -2.351484	 0.059793
H	 0.721226	 -0.624226	 0.118180
C	 -2.041121	 -0.006551	 -0.194127
H	 -1.888548	 -2.136293	 -0.093331
H	 -1.289731	 -1.328757	 1.323321
C	 -3.489218	 0.042606	 0.286507
H	 -2.022185	 0.066287	 -1.279394
H	 -1.518764	 0.869305	 0.178730
C	 -4.219984	 1.311773	 -0.139038
H	 -4.022855	 -0.824300	 -0.093339
H	 -3.510372	 -0.038577	 1.370031
H	 -4.244251	 1.405725	 -1.219696
H	 -5.244345	 1.313233	 0.215630
H	 -3.732090	 2.196311	 0.257073

14 10 13 16 F
