%nprocshared=4
%mem=2GB
#HF/6-31G* nosymm scf=tight opt=ModRedundant

Mol

0 1
O	 0.452467	 -4.284100	 -3.079800
C	 0.575286	 -3.143350	 -3.408495
C	 0.447421	 -2.022262	 -2.392071
C	 0.894278	 -2.758361	 -4.835870
C	 1.737992	 -1.878569	 -1.569319
H	 -0.376905	 -2.269294	 -1.731946
H	 0.215478	 -1.083016	 -2.886082
C	 1.631333	 -0.777471	 -0.511575
H	 1.951141	 -2.834753	 -1.104923
H	 2.572860	 -1.658232	 -2.232790
C	 2.915987	 -0.544314	 0.291766
H	 0.818460	 -1.015390	 0.172062
H	 1.355072	 0.153923	 -1.001506
C	 3.373361	 0.914346	 0.347591
H	 3.708709	 -1.142521	 -0.150311
H	 2.780642	 -0.921148	 1.303579
H	 3.506512	 1.320010	 -0.651625
H	 4.322697	 0.999599	 0.867103
H	 2.660624	 1.545032	 0.868198
H	 0.054474	 -2.218012	 -5.264842
H	 1.088879	 -3.644559	 -5.423721
H	 1.753745	 -2.095189	 -4.872271

12 8 11 15 F
