%nprocshared=1
%mem=2GB
#HF/6-31G* nosymm scf=tight 

Mol

0 1
H	 -2.646374	 -0.642757	 1.268656
C	 -2.083525	 -0.384536	 0.393091
O	 -0.807605	 -0.127164	 0.768327
F	 -2.118945	 -1.383102	 -0.486752
F	 -2.621877	 0.670592	 -0.209486
C	 -0.572959	 0.162793	 2.100075
C	 0.328959	 1.389750	 2.135832
Cl	 0.201484	 -1.204758	 2.916934
H	 -1.477968	 0.392485	 2.634841
F	 0.586267	 1.734859	 3.379549
F	 -0.296638	 2.393358	 1.553735
F	 1.463025	 1.188545	 1.510223

10 7 6 9 F
9 6 3 2 F
