%nprocshared=4
%mem=2GB
#HF/6-31G* nosymm scf=tight opt=ModRedundant

Mol

0 1
H	 -2.172150	 0.880146	 0.502514
C	 -2.018062	 -0.000025	 -0.114509
O	 -0.774054	 0.001095	 -0.743181
H	 -2.760490	 0.003458	 -0.901350
H	 -2.173624	 -0.884374	 0.496163
C	 0.220870	 0.919770	 -0.327615
C	 1.406663	 0.603384	 -1.236355
C	 -0.235258	 2.365600	 -0.548319
C	 0.608703	 0.689871	 1.136573
H	 1.127564	 0.739365	 -2.275126
H	 1.714666	 -0.427478	 -1.102819
H	 2.250832	 1.248924	 -1.016544
H	 -0.575583	 2.500136	 -1.569647
H	 0.587077	 3.050732	 -0.369550
H	 -1.042071	 2.646710	 0.119951
H	 0.861650	 -0.352600	 1.298815
H	 1.471397	 1.294702	 1.396329
H	 -0.191339	 0.957019	 1.818626

6 3 2 5 F
