%nprocshared=4
%mem=2GB
#HF/cc-pVTZ nosymm scf=tight opt=ModRedundant

Mol

0 1
H	 -1.633988	 -0.265849	 -3.401556
C	 -2.303170	 -0.442210	 -2.548339
C	 -1.819918	 -1.475374	 -1.567049
O	 -3.320044	 0.154167	 -2.461104
C	 -0.388386	 -1.214971	 -1.088947
H	 -2.515902	 -1.516273	 -0.739240
H	 -1.856061	 -2.432984	 -2.081813
C	 -0.247837	 0.040196	 -0.230469
H	 -0.053524	 -2.077748	 -0.523419
H	 0.271403	 -1.144275	 -1.950268
C	 1.181757	 0.280428	 0.247371
H	 -0.907480	 -0.042404	 0.629273
H	 -0.589692	 0.908025	 -0.788532
C	 2.151032	 -0.811012	 -0.202643
H	 1.515939	 1.247397	 -0.115449
H	 1.191514	 0.341223	 1.333422
C	 3.580021	 -0.656538	 0.320835
H	 2.170545	 -0.847575	 -1.289412
H	 1.766632	 -1.772905	 0.124928
C	 4.327657	 0.562694	 -0.213579
H	 4.138806	 -1.549270	 0.057813
H	 3.561991	 -0.620783	 1.406976
H	 4.355973	 0.557257	 -1.298551
H	 3.867136	 1.491650	 0.100501
H	 5.351524	 0.571613	 0.142204

12 8 11 14 F
