%nprocshared=4
%mem=2GB
#HF/6-31G* nosymm scf=tight opt=ModRedundant

Mol

0 1
O	 1.055560	 4.192703	 -1.026088
C	 0.058862	 4.534587	 -1.585074
C	 -1.206828	 3.696319	 -1.568537
C	 -0.007106	 5.838500	 -2.353590
C	 -1.080693	 2.395291	 -0.781357
H	 -2.009689	 4.313067	 -1.166760
H	 -1.487093	 3.495532	 -2.601754
C	 -2.374195	 1.578845	 -0.787037
H	 -0.792842	 2.623915	 0.239918
H	 -0.269832	 1.805314	 -1.196783
C	 -2.259874	 0.272531	 0.000494
H	 -3.183846	 2.177650	 -0.372377
H	 -2.657975	 1.354452	 -1.814258
C	 -3.549786	 -0.549746	 -0.000374
H	 -1.976921	 0.495686	 1.027703
H	 -1.451367	 -0.327267	 -0.413698
C	 -4.809590	 0.315458	 -0.000369
H	 -3.560515	 -1.202009	 -0.871156
H	 -3.561123	 -1.202955	 0.869711
H	 -4.844746	 0.956611	 -0.876632
H	 -5.706986	 -0.295590	 -0.001609
H	 -4.845960	 0.954827	 0.877144
H	 -0.785219	 6.478540	 -1.947996
H	 0.945582	 6.346040	 -2.293402
H	 -0.253413	 5.652263	 -3.394880

15 11 14 18 F
