%nprocshared=4
%mem=2GB
#HF/6-31G* nosymm scf=tight opt=ModRedundant

Mol

0 1
H	 -1.836216	 1.387520	 -0.000064
C	 -1.301823	 0.443321	 -0.000031
O	 -0.003969	 0.658512	 0.000451
O	 -1.829879	 -0.616434	 -0.000857
C	 0.448232	 1.940662	 0.434953
C	 1.959059	 1.942954	 0.347103
H	 0.104311	 2.107178	 1.446540
H	 0.007611	 2.698983	 -0.197580
H	 2.382560	 1.172077	 0.980687
H	 2.345036	 2.904030	 0.670504
H	 2.285558	 1.766753	 -0.671347

5 3 2 4 F
