%nprocshared=4
%mem=2GB
#HF/6-31G* nosymm scf=tight opt=ModRedundant

Mol

0 1
H	 2.591676	 2.013956	 0.335017
O	 3.341076	 1.666752	 -0.126416
C	 3.569581	 0.339145	 0.272707
C	 2.539767	 -0.640285	 -0.279495
H	 4.553106	 0.084646	 -0.100901
H	 3.608576	 0.269204	 1.359154
C	 3.150191	 -1.842006	 -1.004835
H	 1.918388	 -0.986982	 0.542123
H	 1.888481	 -0.097968	 -0.962932
C	 2.090840	 -2.777615	 -1.594098
H	 3.778445	 -2.395543	 -0.312550
H	 3.800546	 -1.489543	 -1.805553
C	 2.649072	 -3.952839	 -2.405002
H	 1.464342	 -3.160324	 -0.790430
H	 1.434942	 -2.195702	 -2.238206
C	 3.440069	 -4.979978	 -1.590270
H	 1.816853	 -4.460393	 -2.888340
H	 3.276202	 -3.569410	 -3.208449
C	 3.885544	 -6.184938	 -2.421569
H	 2.828868	 -5.325407	 -0.757670
H	 4.318053	 -4.512988	 -1.150535
C	 4.680836	 -7.208697	 -1.612192
H	 3.011263	 -6.667298	 -2.853366
H	 4.488322	 -5.840883	 -3.259526
H	 4.093091	 -7.596494	 -0.784912
H	 4.980243	 -8.050979	 -2.228270
H	 5.582037	 -6.766233	 -1.196949

8 4 3 2 F
