%nprocshared=1
%mem=2GB
#HF/6-31G* nosymm scf=tight 
prop=(read,field)

Mol

0 1
O	 0.749999	 1.307699	 -0.000040
C	 0.576393	 0.131716	 -0.000108
C	 -0.766635	 -0.556770	 -0.000461
O	 1.568587	 -0.749314	 -0.000005
C	 -1.945070	 0.412397	 0.000161
H	 -0.796767	 -1.211218	 -0.867467
H	 -0.796709	 -1.212359	 0.865687
C	 -3.287647	 -0.317024	 0.000105
H	 -1.875943	 1.060611	 -0.866812
H	 -1.875678	 1.059722	 0.867761
H	 -3.394601	 -0.949162	 -0.877058
H	 -4.111634	 0.388984	 0.000015
H	 -3.394810	 -0.949156	 0.877259
C	 2.886965	 -0.232507	 0.000322
H	 3.059251	 0.369602	 -0.880203
H	 3.540332	 -1.090981	 0.000050
H	 3.059164	 0.368987	 0.881266

@grid.dat /N
