%nprocshared=4
%mem=2GB
#HF/cc-pVTZ nosymm scf=tight opt=ModRedundant

Mol

0 1
H	 -2.644180	 -0.653737	 1.272255
C	 -2.092774	 -0.380414	 0.391915
O	 -0.808934	 -0.154049	 0.752536
F	 -2.163230	 -1.351640	 -0.507133
F	 -2.627232	 0.691260	 -0.169301
C	 0.079950	 -1.206654	 0.717782
C	 -0.035921	 -1.857736	 -0.658424
Cl	 -0.281355	 -2.393507	 1.985211
H	 1.099620	 -0.891477	 0.854102
F	 0.797644	 -2.861455	 -0.762060
F	 0.278599	 -0.974735	 -1.576412
F	 -1.243009	 -2.288924	 -0.901870

6 3 2 4 F
