%nprocshared=4
%mem=2GB
#HF/cc-pVTZ nosymm scf=tight opt=ModRedundant

Mol

0 1
O	 -4.741559	 3.677983	 3.374923
C	 -3.562142	 3.759984	 3.486103
C	 -2.630085	 2.634875	 3.084568
C	 -2.907686	 5.004973	 4.041002
C	 -2.930863	 2.021940	 1.724174
H	 -1.614819	 3.023858	 3.116108
H	 -2.673335	 1.879345	 3.865793
C	 -2.209178	 0.695020	 1.506083
H	 -2.651674	 2.725161	 0.947870
H	 -4.001126	 1.879557	 1.627232
C	 -2.502142	 0.069873	 0.145313
H	 -1.136535	 0.844981	 1.607190
H	 -2.492446	 -0.004593	 2.289385
C	 -2.219889	 1.005869	 -1.026430
H	 -3.542858	 -0.242958	 0.111271
H	 -1.910129	 -0.834969	 0.031694
C	 -3.265664	 2.105091	 -1.180881
H	 -1.239920	 1.457423	 -0.897206
H	 -2.168843	 0.426538	 -1.944411
H	 -3.316718	 2.724241	 -0.291449
H	 -3.035925	 2.751154	 -2.020430
H	 -4.252439	 1.685758	 -1.346650
H	 -2.221465	 5.423139	 3.312795
H	 -3.662109	 5.735040	 4.290482
H	 -2.329392	 4.760820	 4.925313

9 5 3 6 F
