%nprocshared=4
%mem=2GB
#HF/cc-pVTZ nosymm scf=tight opt=ModRedundant

Mol

0 1
H	 -1.835082	 1.385983	 0.000069
C	 -1.300516	 0.441153	 -0.000028
O	 -0.006604	 0.654344	 -0.000106
O	 -1.828920	 -0.612308	 0.000113
C	 0.852093	 -0.482521	 -0.000161
C	 2.136375	 -0.090286	 -0.691155
H	 0.355788	 -1.295029	 -0.511501
H	 1.026033	 -0.788886	 1.021528
H	 1.946639	 0.217731	 -1.711497
H	 2.813740	 -0.935710	 -0.708165
H	 2.620245	 0.726442	 -0.170774

7 5 3 2 F
