%nprocshared=1
%mem=2GB
#HF/6-31G* nosymm scf=tight 

Mol

0 1
H	 -3.161837	 0.500524	 -0.000234
C	 -2.367097	 -0.232926	 -0.000000
O	 -1.158440	 0.455814	 -0.000122
H	 -2.468853	 -0.861886	 -0.882833
H	 -2.468942	 -0.861421	 0.883154
C	 -0.029776	 -0.365156	 0.000148
C	 0.528594	 -0.431323	 -1.410705
H	 -0.292346	 -1.364193	 0.350693
H	 0.720972	 0.029034	 0.686369
C	 1.772580	 -1.313523	 -1.506113
H	 -0.247805	 -0.805347	 -2.070987
H	 0.758495	 0.578094	 -1.737695
H	 1.557856	 -2.335415	 -1.206024
H	 2.149797	 -1.342314	 -2.522835
H	 2.571204	 -0.942526	 -0.869745

6 3 2 4 F
11 7 6 8 F
