%nprocshared=4
%mem=2GB
#HF/cc-pVTZ nosymm scf=tight opt=ModRedundant

Mol

0 1
H	 0.404050	 -1.179163	 -1.110251
C	 0.483953	 -0.124086	 -1.405661
C	 0.062554	 0.862911	 -0.350953
O	 0.884413	 0.160634	 -2.480705
C	 -1.339253	 0.577611	 0.196911
H	 0.131819	 1.860496	 -0.765104
H	 0.785620	 0.783951	 0.457759
C	 -1.813142	 -0.849710	 -0.061612
H	 -2.032833	 1.276441	 -0.256032
H	 -1.357249	 0.782269	 1.263793
H	 -1.839268	 -1.063526	 -1.124230
H	 -2.810118	 -1.001930	 0.334000
H	 -1.159274	 -1.579980	 0.402282

6 3 5 9 F
