%nprocshared=4
%mem=2GB
#HF/cc-pVTZ nosymm scf=tight opt=ModRedundant

Mol

0 1
O	 -0.406316	 0.104456	 2.438929
C	 -0.846966	 0.612872	 1.465048
C	 -1.705041	 1.846597	 1.455975
O	 -0.637375	 0.157174	 0.243149
H	 -2.660144	 1.621661	 0.998917
H	 -1.849763	 2.193395	 2.466135
H	 -1.229463	 2.616125	 0.861651
C	 0.162530	 -1.009518	 0.097799
C	 1.587210	 -0.664190	 0.477086
H	 0.096803	 -1.356267	 -0.924704
H	 -0.233803	 -1.785900	 0.736810
C	 2.051068	 0.705326	 -0.011817
H	 2.228704	 -1.435612	 0.059799
H	 1.688261	 -0.725118	 1.556398
C	 3.498276	 1.004894	 0.364300
H	 1.941230	 0.753986	 -1.091940
H	 1.403850	 1.471824	 0.398590
H	 3.802547	 1.979886	 0.002092
H	 4.175016	 0.269378	 -0.058110
H	 3.632315	 0.995918	 1.440855

12 9 8 10 F
