%nprocshared=1
%mem=2GB
#HF/6-31G* nosymm scf=tight 

Mol

0 1
O	 -0.682937	 1.318834	 -0.186099
C	 -0.860635	 0.152188	 -0.042321
C	 -2.173363	 -0.477127	 0.338347
O	 0.083258	 -0.765189	 -0.202595
H	 -2.477673	 -1.180929	 -0.427595
H	 -2.923125	 0.290956	 0.455536
H	 -2.058825	 -1.029004	 1.264191
C	 0.723623	 -1.289369	 0.958424
C	 -0.082776	 -2.415621	 1.578041
H	 0.887803	 -0.489740	 1.664666
H	 1.678989	 -1.647376	 0.602606
H	 0.464853	 -2.843551	 2.412133
H	 -1.033732	 -2.051906	 1.946499
H	 -0.263802	 -3.199909	 0.851036

10 8 4 2 F
