%nprocshared=4
%mem=2GB
#HF/cc-pVTZ nosymm scf=tight opt=ModRedundant

Mol

0 1
H	 -0.939693	 0.000281	 1.681345
O	 -0.046262	 -0.000157	 1.387678
C	 -0.000837	 0.000006	 -0.025491
C	 -0.703034	 1.246945	 -0.559542
C	 1.453525	 -0.043249	 -0.490363
C	 -0.740889	 -1.259910	 -0.453419
H	 -0.715936	 1.256934	 -1.643298
H	 -0.195390	 2.147068	 -0.226155
H	 -1.724501	 1.284301	 -0.202228
H	 1.519559	 -0.080550	 -1.571583
H	 1.990852	 0.839143	 -0.156092
H	 1.951425	 -0.914830	 -0.084276
H	 -0.759637	 -1.349216	 -1.533216
H	 -1.760835	 -1.236626	 -0.090955
H	 -0.256425	 -2.136702	 -0.042631

4 3 2 1 F
