%nprocshared=1
%mem=2GB
#HF/6-31G* nosymm scf=tight opt=ModRedundant

Mol

0 1
O	 2.862325	 1.357334	 0.000267
C	 2.843464	 0.164689	 -0.000222
C	 1.546494	 -0.624492	 -0.000609
C	 4.124123	 -0.644674	 -0.000428
C	 0.291004	 0.242674	 0.000989
H	 1.557904	 -1.283758	 -0.867573
H	 1.558622	 -1.285963	 0.864672
C	 -0.994322	 -0.586602	 0.000262
H	 0.309117	 0.896430	 -0.865270
H	 0.309661	 0.894078	 0.869017
C	 -2.259874	 0.272531	 0.000494
H	 -1.004862	 -1.240012	 -0.870939
H	 -1.005220	 -1.241071	 0.870675
C	 -3.400792	 -0.330048	 -0.821222
H	 -2.022588	 1.262114	 -0.386081
H	 -2.594447	 0.419316	 1.025926
C	 -4.661395	 0.533978	 -0.816352
H	 -3.067926	 -0.476133	 -1.846738
H	 -3.639908	 -1.318658	 -0.434786
H	 -4.462923	 1.519153	 -1.228891
H	 -5.451514	 0.081114	 -1.407391
H	 -5.039640	 0.669709	 0.192931
H	 4.165367	 -1.288615	 -0.874074
H	 4.976217	 0.020734	 -0.001915
H	 4.166763	 -1.286207	 0.874930

15 11 8 12 F
