%nprocshared=4
%mem=2GB
#HF/6-31G* nosymm scf=tight opt=ModRedundant

Mol

0 1
H	 2.575353	 2.064200	 0.280355
O	 3.327221	 1.711818	 -0.173067
C	 3.566904	 0.396410	 0.258567
C	 2.544731	 -0.604775	 -0.268234
H	 4.552197	 0.140790	 -0.109578
H	 3.607300	 0.353706	 1.346374
C	 1.119218	 -0.360957	 0.233097
H	 2.559858	 -0.573750	 -1.354592
H	 2.865499	 -1.602970	 0.025161
C	 0.127412	 -1.413763	 -0.269636
H	 0.792975	 0.625594	 -0.084153
H	 1.114392	 -0.357490	 1.323191
C	 -1.298997	 -1.265338	 0.272274
H	 0.103077	 -1.391972	 -1.357652
H	 0.499268	 -2.398619	 0.005105
C	 -2.037799	 -0.007733	 -0.193645
H	 -1.873037	 -2.137723	 -0.033076
H	 -1.273965	 -1.286601	 1.360741
C	 -3.489788	 0.042957	 0.286558
H	 -2.018487	 0.037633	 -1.281615
H	 -1.520642	 0.881911	 0.157615
C	 -4.216917	 1.317354	 -0.141063
H	 -4.025645	 -0.823308	 -0.095450
H	 -3.513059	 -0.038752	 1.371301
H	 -4.239342	 1.411634	 -1.223113
H	 -5.243387	 1.322503	 0.212445
H	 -3.726170	 2.201406	 0.256408

20 16 19 22 F
