%nprocshared=4
%mem=2GB
#HF/cc-pVTZ nosymm scf=tight opt=ModRedundant

Mol

0 1
O	 -2.081319	 -0.951530	 -0.502732
N	 -1.613558	 0.006676	 0.014756
C	 -0.329345	 -0.171618	 0.743966
O	 -2.068523	 1.100482	 -0.024385
C	 0.835904	 0.041968	 -0.213982
H	 -0.346048	 -1.174374	 1.137184
H	 -0.333613	 0.555559	 1.538590
C	 0.815688	 -0.977097	 -1.350320
H	 0.781165	 1.046848	 -0.616198
H	 1.764842	 -0.037665	 0.338711
C	 1.976769	 -0.789868	 -2.320536
H	 -0.123159	 -0.897051	 -1.890317
H	 0.849084	 -1.980413	 -0.936016
H	 1.950392	 0.193617	 -2.776341
H	 2.929865	 -0.895557	 -1.814420
H	 1.939650	 -1.525003	 -3.115117

9 5 3 2 F
