%nprocshared=1
%mem=2GB
#HF/6-31G* nosymm scf=tight 
prop=(read,field)

Mol

0 1
H	 2.652392	 0.763229	 0.000000
O	 2.263337	 -0.100025	 -0.000000
C	 0.913062	 -0.015687	 -0.000000
C	 0.197917	 -1.206129	 -0.000000
C	 0.244155	 1.197428	 -0.000000
H	 0.735913	 -2.135844	 -0.000000
C	 -1.182954	 -1.171464	 -0.000000
H	 0.799611	 2.120460	 -0.000000
C	 -1.142969	 1.217491	 -0.000000
H	 -1.732222	 -2.096121	 -0.000000
C	 -1.865012	 0.038376	 -0.000000
H	 -1.654571	 2.163510	 -0.000000
H	 -2.939443	 0.057408	 -0.000000

@grid.dat /N
