%nprocshared=4
%mem=2GB
#HF/cc-pVTZ nosymm scf=tight opt=ModRedundant

Mol

0 1
H	 -3.801279	 1.193572	 -0.209218
C	 -3.157821	 0.484949	 0.270494
C	 -2.032804	 0.141256	 -0.307051
H	 -3.452572	 0.075078	 1.216499
O	 -1.189946	 -0.765863	 0.237511
H	 -1.723657	 0.552104	 -1.250852
C	 0.026572	 -0.995256	 -0.379403
C	 1.057223	 0.049888	 -0.004615
H	 -0.054361	 -1.010670	 -1.459674
H	 0.397526	 -1.952058	 -0.044198
F	 2.203233	 -0.234060	 -0.590375
F	 0.698147	 1.254887	 -0.392621
F	 1.266440	 0.094219	 1.288722

3 5 7 9 F
