%nprocshared=4
%mem=2GB
#HF/cc-pVTZ nosymm scf=tight opt=ModRedundant

Mol

0 1
H	 2.045048	 2.139976	 -0.894453
N	 1.230856	 1.566976	 -0.960432
C	 1.263552	 0.494993	 0.021953
H	 1.203925	 1.199151	 -1.888503
C	 -0.016533	 -0.325589	 -0.026925
H	 1.360841	 0.947585	 1.003120
H	 2.120127	 -0.168885	 -0.102663
C	 -1.280353	 0.525521	 0.047747
H	 -0.016686	 -0.912532	 -0.939714
H	 -0.014099	 -1.037598	 0.796369
C	 -2.560681	 -0.301323	 -0.007747
H	 -1.279957	 1.241025	 -0.770189
H	 -1.270445	 1.110526	 0.963468
H	 -2.617064	 -0.872870	 -0.928010
H	 -3.439525	 0.331102	 0.043462
H	 -2.609427	 -1.002736	 0.818585

6 3 5 9 F
