%nprocshared=4
%mem=2GB
#HF/cc-pVTZ nosymm scf=tight opt=ModRedundant

Mol

0 1
H	 1.295692	 1.728287	 -3.645433
O	 2.211227	 1.527832	 -3.586769
C	 2.740332	 2.021309	 -2.384354
C	 2.302519	 1.231665	 -1.159826
H	 3.815336	 1.961491	 -2.488120
H	 2.486621	 3.072464	 -2.261253
C	 0.807311	 1.315355	 -0.861167
H	 2.590608	 0.193716	 -1.297022
H	 2.861488	 1.604132	 -0.304712
C	 0.410631	 0.537894	 0.393041
H	 0.250011	 0.937499	 -1.711840
H	 0.522347	 2.358962	 -0.738825
C	 -1.064840	 0.647719	 0.781859
H	 0.669693	 -0.509731	 0.260393
H	 1.012114	 0.894493	 1.224621
C	 -2.041121	 -0.006551	 -0.194127
H	 -1.194807	 0.190453	 1.758866
H	 -1.326454	 1.696515	 0.903270
C	 -3.489218	 0.042606	 0.286507
H	 -1.751108	 -1.043530	 -0.349161
H	 -1.978162	 0.475382	 -1.165095
C	 -4.219984	 1.311773	 -0.139038
H	 -4.022855	 -0.824300	 -0.093339
H	 -3.510372	 -0.038577	 1.370031
H	 -4.244251	 1.405725	 -1.219696
H	 -5.244345	 1.313233	 0.215630
H	 -3.732090	 2.196311	 0.257073

20 16 19 22 F
