%nprocshared=4
%mem=2GB
#HF/6-31G* nosymm scf=tight opt=ModRedundant

Mol

0 1
O	 -2.821601	 1.309235	 -0.001213
C	 -2.668563	 0.129746	 -0.000350
C	 -3.801572	 -0.864014	 -0.000442
O	 -1.481751	 -0.454642	 0.000584
H	 -4.417280	 -0.689587	 -0.874708
H	 -3.443784	 -1.883046	 -0.000565
H	 -4.417179	 -0.689832	 0.873954
C	 -0.334255	 0.388708	 0.000906
C	 0.891947	 -0.504646	 0.000751
H	 -0.365390	 1.025305	 -0.873475
H	 -0.365484	 1.024911	 0.875569
C	 2.191998	 0.301789	 0.000897
H	 0.855148	 -1.151283	 -0.871571
H	 0.855132	 -1.151660	 0.872805
C	 2.157025	 1.488843	 -0.963471
H	 2.395200	 0.664170	 1.007115
H	 3.023835	 -0.349042	 -0.262826
C	 3.455051	 2.295064	 -0.962297
H	 1.326556	 2.140441	 -0.701146
H	 1.956359	 1.128293	 -1.969854
H	 3.665735	 2.697861	 0.024304
H	 3.399600	 3.129020	 -1.654885
H	 4.300197	 1.678219	 -1.254258

16 12 9 13 F
