%nprocshared=4
%mem=2GB
#HF/6-31G* nosymm scf=tight opt=ModRedundant

Mol

0 1
O	 1.214711	 1.306902	 -0.000018
C	 1.122059	 0.121804	 -0.000188
C	 -0.170150	 -0.657997	 -0.000612
O	 2.172624	 -0.688929	 0.000216
C	 -1.412532	 0.227344	 -0.000452
H	 -0.153702	 -1.313099	 -0.867402
H	 -0.153924	 -1.313811	 0.865644
C	 -1.790305	 0.699286	 -1.405416
H	 -1.241176	 1.085228	 0.642336
H	 -2.241365	 -0.318335	 0.439745
C	 -3.034824	 1.585903	 -1.414609
H	 -0.956139	 1.244717	 -1.842166
H	 -1.958336	 -0.164168	 -2.045950
H	 -2.885930	 2.475844	 -0.810051
H	 -3.280676	 1.906866	 -2.421990
H	 -3.895404	 1.056700	 -1.015876
C	 3.452279	 -0.082609	 0.000533
H	 3.583069	 0.529321	 -0.880332
H	 4.163299	 -0.894027	 0.001117
H	 3.582335	 0.529955	 0.881077

9 5 3 6 F
