%nprocshared=4
%mem=2GB
#HF/cc-pVTZ nosymm scf=tight opt=ModRedundant

Mol

0 1
O	 -0.694481	 1.313155	 -0.204815
C	 -0.862519	 0.151932	 -0.046791
C	 -2.171428	 -0.477048	 0.339095
O	 0.085519	 -0.757083	 -0.192238
H	 -2.467997	 -1.191667	 -0.417688
H	 -2.923379	 0.287970	 0.444097
H	 -2.053854	 -1.015120	 1.270901
C	 1.392036	 -0.330828	 -0.560749
C	 1.356087	 0.654876	 -1.710094
H	 1.991124	 -1.193553	 -0.806951
H	 1.790399	 0.131390	 0.329988
H	 2.360173	 1.007059	 -1.918015
H	 0.966780	 0.190340	 -2.605654
H	 0.739910	 1.510452	 -1.461281

10 8 4 2 F
