%nprocshared=1
%mem=2GB
#HF/6-31G* nosymm scf=tight opt=ModRedundant

Mol

0 1
H	 -3.261111	 -0.295142	 1.469456
C	 -3.306842	 -0.277400	 0.373456
C	 -2.660244	 0.921717	 -0.272021
O	 -3.838538	 -1.161155	 -0.216482
C	 -1.618517	 0.530748	 -1.329473
H	 -3.440115	 1.545975	 -0.692513
H	 -2.171253	 1.486792	 0.520591
C	 -2.223387	 -0.151400	 -2.559150
H	 -1.088776	 1.427048	 -1.638186
H	 -0.872384	 -0.121197	 -0.877799
C	 -1.175357	 -0.524976	 -3.609335
H	 -2.964217	 0.509491	 -3.004393
H	 -2.762655	 -1.047017	 -2.256496
C	 -1.785557	 -1.192402	 -4.844709
H	 -0.633210	 0.371296	 -3.900033
H	 -0.441989	 -1.195972	 -3.164002
C	 -0.765070	 -1.659406	 -5.889020
H	 -2.490297	 -0.507143	 -5.313169
H	 -2.368339	 -2.052980	 -4.523021
C	 0.006759	 -0.529804	 -6.573050
H	 -1.290149	 -2.232120	 -6.649441
H	 -0.062276	 -2.347304	 -5.423403
H	 -0.671879	 0.183061	 -7.034073
H	 0.634328	 0.014422	 -5.875232
H	 0.652532	 -0.922021	 -7.352882

6 3 2 4 F
