%nprocshared=1
%mem=2GB
#HF/6-31G* nosymm scf=tight 

Mol

0 1
H	 3.729471	 -0.928294	 -0.070608
O	 2.826016	 -1.159218	 0.122261
C	 2.077727	 -0.067559	 -0.035091
C	 0.624473	 -0.343591	 0.253101
O	 2.542965	 0.974826	 -0.363729
C	 -0.265902	 0.883932	 0.072916
H	 0.324016	 -1.163849	 -0.390541
H	 0.565024	 -0.726111	 1.268924
C	 -1.728698	 0.646073	 0.462102
H	 -0.209144	 1.219470	 -0.958188
H	 0.135059	 1.692851	 0.673903
C	 -1.945040	 0.167407	 1.900515
H	 -2.141367	 -0.097308	 -0.216021
H	 -2.301880	 1.557020	 0.295384
C	 -3.409717	 -0.152220	 2.198907
H	 -1.338857	 -0.718641	 2.078014
H	 -1.598957	 0.921024	 2.603132
H	 -3.538164	 -0.487357	 3.223357
H	 -3.780860	 -0.936054	 1.544930
H	 -4.038571	 0.721999	 2.055655

16 12 9 6 F
7 4 6 10 F
5 3 4 7 F
1 2 3 5 F
