%nprocshared=4
%mem=2GB
#HF/cc-pVTZ nosymm scf=tight opt=ModRedundant

Mol

0 1
H	 -0.917456	 -3.702907	 0.642486
O	 -1.142475	 -2.821182	 0.386272
C	 -0.035459	 -2.084071	 0.397114
C	 -0.310616	 -0.658853	 0.000791
O	 1.017141	 -2.534320	 0.692547
C	 0.926581	 0.227233	 0.000178
H	 -1.067662	 -0.279340	 0.679450
H	 -0.778325	 -0.684505	 -0.978141
C	 2.220156	 -0.582071	 -0.000088
H	 0.899945	 0.878221	 -0.866390
H	 0.900542	 0.878581	 0.866486
C	 3.466689	 0.296012	 -0.000457
H	 2.239073	 -1.234095	 -0.869382
H	 2.239505	 -1.233985	 0.869270
H	 3.493549	 0.935857	 -0.875887
H	 4.368821	 -0.304526	 -0.001199
H	 3.494559	 0.935166	 0.875458

7 4 6 10 F
