%nprocshared=4
%mem=2GB
#HF/cc-pVTZ nosymm scf=tight opt=ModRedundant

Mol

0 1
H	 2.614283	 2.028610	 0.296620
O	 3.358864	 1.662087	 -0.142800
C	 3.565468	 0.338079	 0.273842
C	 2.533667	 -0.637565	 -0.272227
H	 4.548038	 0.064914	 -0.086598
H	 3.593945	 0.282242	 1.360360
C	 1.114816	 -0.402372	 0.240993
H	 2.544552	 -0.580764	 -1.356576
H	 2.850574	 -1.642962	 -0.005497
C	 0.044687	 -0.868037	 -0.745322
H	 0.979251	 0.653688	 0.449229
H	 0.981849	 -0.927250	 1.185509
C	 -1.396001	 -0.724239	 -0.251365
H	 0.159588	 -0.324063	 -1.679730
H	 0.224009	 -1.913445	 -0.980768
C	 -1.878357	 0.714446	 -0.074559
H	 -2.050825	 -1.223298	 -0.960360
H	 -1.507531	 -1.259021	 0.689232
C	 -3.349345	 0.806652	 0.323063
H	 -1.724298	 1.260153	 -1.002966
H	 -1.280169	 1.219325	 0.677950
C	 -3.833233	 2.241565	 0.504082
H	 -3.956508	 0.314793	 -0.431925
H	 -3.506601	 0.254822	 1.246002
H	 -3.719074	 2.811578	 -0.412046
H	 -4.880336	 2.271057	 0.783031
H	 -3.270315	 2.749932	 1.279993

10 7 4 8 F
