%nprocshared=4
%mem=2GB
#HF/cc-pVTZ nosymm scf=tight opt=ModRedundant

Mol

0 1
H	 -8.927055	 3.061571	 -0.981972
C	 -8.609775	 2.867819	 -2.015742
C	 -8.417602	 1.415264	 -2.357860
O	 -8.436179	 3.769636	 -2.759986
C	 -7.111023	 1.151779	 -3.112250
H	 -8.475440	 0.835948	 -1.445511
H	 -9.257545	 1.131220	 -2.988034
C	 -5.859068	 1.384945	 -2.269383
H	 -7.120778	 0.126973	 -3.467238
H	 -7.075565	 1.778262	 -4.000200
C	 -5.641798	 2.853761	 -1.915610
H	 -4.993208	 1.011088	 -2.809405
H	 -5.917174	 0.800860	 -1.354563
C	 -6.900381	 3.527547	 -1.372262
H	 -4.838397	 2.925320	 -1.189131
H	 -5.303223	 3.389394	 -2.799783
C	 -7.827821	 4.111512	 -2.439380
H	 -6.614724	 4.314215	 -0.677756
H	 -7.459838	 2.800038	 -0.790848
C	 -7.244121	 5.287623	 -3.218572
H	 -8.743922	 4.435874	 -1.955707
H	 -8.114795	 3.326049	 -3.133643
H	 -6.941812	 6.086551	 -2.549005
H	 -6.377675	 4.999038	 -3.801388
H	 -7.976863	 5.694192	 -3.906144

8 11 14 18 F
