%nprocshared=4
%mem=2GB
#HF/cc-pVTZ nosymm scf=tight opt=ModRedundant

Mol

0 1
O	 -2.088113	 1.800309	 -0.225453
C	 -1.986963	 0.618724	 -0.296558
C	 -0.763837	 -0.025265	 -0.918883
C	 -3.056001	 -0.301445	 0.243084
C	 0.376695	 -0.140025	 0.100361
H	 -0.450206	 0.598609	 -1.746245
H	 -1.012015	 -1.007472	 -1.306881
C	 1.630207	 -0.772146	 -0.501001
H	 0.595373	 0.850739	 0.478242
H	 0.050272	 -0.734464	 0.950296
C	 2.907848	 -0.545876	 0.309149
H	 1.772784	 -0.391628	 -1.509394
H	 1.468529	 -1.842059	 -0.599744
C	 3.373802	 0.906639	 0.372125
H	 3.699140	 -1.146831	 -0.127906
H	 2.764321	 -0.923458	 1.318191
H	 3.519798	 1.311927	 -0.623875
H	 4.316899	 0.983758	 0.900700
H	 2.661122	 1.540651	 0.885346
H	 -3.534202	 -0.816435	 -0.584024
H	 -3.793995	 0.265669	 0.789266
H	 -2.620565	 -1.060073	 0.883763

3 5 8 12 F
