%nprocshared=4
%mem=2GB
#HF/cc-pVTZ nosymm scf=tight opt=ModRedundant

Mol

0 1
O	 -0.694481	 1.313155	 -0.204815
C	 -0.862519	 0.151932	 -0.046791
C	 -2.171428	 -0.477048	 0.339095
O	 0.085519	 -0.757083	 -0.192238
H	 -2.467997	 -1.191667	 -0.417688
H	 -2.923379	 0.287970	 0.444097
H	 -2.053854	 -1.015120	 1.270901
C	 1.392036	 -0.330828	 -0.560749
C	 1.817193	 0.901616	 0.210109
H	 1.421198	 -0.153440	 -1.624468
H	 2.029798	 -1.169962	 -0.326514
H	 2.839064	 1.156436	 -0.047371
H	 1.185530	 1.745490	 -0.031263
H	 1.769964	 0.720710	 1.277178

10 8 4 2 F
