%nprocshared=4
%mem=2GB
#HF/cc-pVTZ nosymm scf=tight opt=ModRedundant

Mol

0 1
O	 -0.131320	 -1.358127	 -2.763986
C	 -0.584668	 -0.411977	 -2.206574
C	 -0.881910	 -0.448129	 -0.720509
C	 -0.870139	 0.877287	 -2.939426
C	 0.376695	 -0.140025	 0.100361
H	 -1.237070	 -1.442533	 -0.481481
H	 -1.664772	 0.261935	 -0.475965
C	 1.630207	 -0.772146	 -0.501001
H	 0.486632	 0.935267	 0.162725
H	 0.248225	 -0.501310	 1.117842
C	 2.907848	 -0.545876	 0.309149
H	 1.772784	 -0.391628	 -1.509394
H	 1.468529	 -1.842059	 -0.599744
C	 3.373802	 0.906639	 0.372125
H	 3.699140	 -1.146831	 -0.127906
H	 2.764321	 -0.923458	 1.318191
H	 3.519798	 1.311927	 -0.623875
H	 4.316899	 0.983758	 0.900700
H	 2.661122	 1.540651	 0.885346
H	 -1.942989	 1.037866	 -2.974158
H	 -0.480627	 0.827942	 -3.944620
H	 -0.437068	 1.720719	 -2.413440

6 3 5 8 F
