%nprocshared=4
%mem=2GB
#HF/cc-pVTZ nosymm scf=tight opt=ModRedundant

Mol

0 1
O	 -2.071633	 -1.227563	 -0.223463
C	 -1.652164	 -0.152425	 0.058082
C	 -0.327811	 0.006324	 0.778296
C	 -2.402515	 1.108629	 -0.298924
C	 -0.000010	 1.486129	 1.010996
H	 -0.351093	 -0.518796	 1.727417
H	 0.437892	 -0.442838	 0.158787
C	 1.336468	 1.689240	 1.718669
H	 -0.788986	 1.949858	 1.597652
H	 0.012966	 1.993679	 0.052566
C	 1.672591	 3.159872	 1.940987
H	 1.319936	 1.173793	 2.674998
H	 2.123842	 1.223108	 1.133604
H	 0.920182	 3.645772	 2.553209
H	 1.727412	 3.694909	 0.999128
H	 2.627599	 3.271186	 2.440958
H	 -3.240910	 0.874416	 -0.936711
H	 -1.747554	 1.818823	 -0.790984
H	 -2.760419	 1.579708	 0.610998

5 3 2 4 F
