%nprocshared=4
%mem=2GB
#HF/cc-pVTZ nosymm scf=tight opt=ModRedundant

Mol

0 1
H	 1.938708	 -1.341693	 1.019670
C	 1.117632	 -0.676548	 1.227632
O	 0.462329	 -0.453336	 -0.000137
H	 1.504054	 0.248243	 1.637094
H	 0.454179	 -1.143819	 1.944379
C	 -0.590565	 0.341382	 0.000062
O	 -1.693898	 -0.053880	 0.000252
H	 -0.340426	 1.403822	 0.000200

2 3 6 7 F
