%nprocshared=4
%mem=2GB
#HF/cc-pVTZ nosymm scf=tight opt=ModRedundant

Mol

0 1
H	 -2.816458	 -0.841657	 -0.064679
N	 -1.878861	 -0.711874	 0.250184
C	 -1.341419	 0.551458	 -0.220231
H	 -1.333674	 -1.468530	 -0.105118
C	 0.082190	 0.731516	 0.254705
H	 -1.357065	 0.652078	 -1.304747
H	 -1.939897	 1.357530	 0.189797
O	 0.881195	 -0.248324	 -0.336237
H	 0.440901	 1.722476	 -0.020063
H	 0.119896	 0.643586	 1.338114
C	 0.254836	 -0.973038	 -1.342062
H	 0.962101	 -1.697273	 -1.719745
H	 -0.618914	 -1.501395	 -0.966435
H	 -0.058309	 -0.329053	 -2.160467

11 8 5 3 F
