%nprocshared=4
%mem=2GB
#HF/cc-pVTZ nosymm scf=tight opt=ModRedundant

Mol

0 1
H	 3.721163	 -1.214152	 -2.238193
C	 3.223051	 -1.227664	 -1.276003
C	 1.948263	 -0.391817	 -1.306453
H	 3.007083	 -2.262326	 -1.031318
H	 3.923408	 -0.853311	 -0.536831
C	 1.215950	 -0.382441	 0.027187
H	 1.274936	 -0.766334	 -2.069430
H	 2.194488	 0.629861	 -1.585960
N	 0.000002	 0.398953	 -0.040851
H	 0.947492	 -1.399790	 0.295702
H	 1.892539	 -0.025701	 0.809521
C	 -1.215959	 -0.382435	 0.027143
H	 -0.000012	 1.086078	 0.683841
C	 -2.451944	 0.502410	 -0.038737
H	 -1.221867	 -1.069392	 -0.813828
H	 -1.259993	 -0.999709	 0.929424
C	 -3.752217	 -0.292550	 0.005776
H	 -2.407325	 1.093801	 -0.946480
H	 -2.431979	 1.206234	 0.790023
H	 -3.817783	 -0.982946	 -0.828547
H	 -4.612613	 0.364348	 -0.042306
H	 -3.830160	 -0.871666	 0.919868

10 6 9 12 F
