%nprocshared=4
%mem=2GB
#HF/cc-pVTZ nosymm scf=tight opt=ModRedundant

Mol

0 1
H	 2.342730	 0.877684	 -1.045694
C	 2.360424	 0.000000	 -0.411793
C	 1.173749	 0.000000	 0.526870
H	 3.286567	 0.000000	 0.151574
H	 2.342730	 -0.877684	 -1.045694
O	 0.000000	 0.000000	 -0.223739
H	 1.203779	 0.876757	 1.172538
H	 1.203779	 -0.876757	 1.172538
C	 -1.173749	 0.000000	 0.526870
C	 -0.870865	 0.513585	 1.917473
H	 -1.583856	 -1.007804	 0.578200
H	 -1.923123	 0.628734	 0.047679
H	 -0.137051	 -0.117187	 2.403390
H	 -1.771650	 0.522329	 2.520493
H	 -0.476676	 1.521081	 1.872308

11 9 6 3 F
