%nprocshared=4
%mem=2GB
#HF/cc-pVTZ nosymm scf=tight opt=ModRedundant

Mol

0 1
H	 -1.274539	 -1.873685	 1.362135
N	 -0.498138	 -1.252677	 1.277727
C	 -0.561396	 -0.500007	 0.035200
H	 0.330048	 -1.809472	 1.315452
C	 0.575129	 0.507849	 -0.048832
H	 -1.508749	 0.028506	 0.014840
H	 -0.539959	 -1.137606	 -0.849911
C	 1.951750	 -0.141983	 0.035101
H	 0.478254	 1.061643	 -0.975981
H	 0.467676	 1.231891	 0.755499
H	 2.101550	 -0.848142	 -0.774949
H	 2.738260	 0.600794	 -0.026526
H	 2.078939	 -0.679792	 0.968824

6 3 5 9 F
