%nprocshared=4
%mem=2GB
#HF/cc-pVTZ nosymm scf=tight opt=ModRedundant

Mol

0 1
O	 -0.427360	 -1.392182	 -0.665010
C	 0.595354	 -1.297218	 -0.076775
C	 1.246364	 -0.005813	 0.348416
O	 1.317782	 -2.342573	 0.292610
C	 0.453207	 1.232821	 -0.049003
H	 1.394842	 -0.066917	 1.419758
H	 2.239873	 0.009843	 -0.088647
C	 -0.998367	 1.217982	 0.432195
H	 0.481498	 1.345443	 -1.127236
H	 0.951413	 2.105557	 0.354893
C	 -1.302015	 0.213989	 1.543141
H	 -1.632376	 0.993005	 -0.420204
H	 -1.280367	 2.215621	 0.761544
C	 -0.296182	 0.270686	 2.689820
H	 -2.299850	 0.403855	 1.931917
H	 -1.318067	 -0.794953	 1.141500
C	 1.096465	 -0.217598	 2.301380
H	 -0.665318	 -0.325630	 3.520774
H	 -0.227257	 1.292138	 3.056904
C	 2.095082	 -0.159632	 3.452545
H	 1.029235	 -1.238212	 1.934571
H	 1.468017	 0.379226	 1.472763
H	 3.072294	 -0.512451	 3.143419
H	 1.769374	 -0.775235	 4.284444
H	 2.210808	 0.854811	 3.819587
C	 0.824678	 -3.623490	 -0.043565
H	 -0.139967	 -3.792406	 0.411591
H	 1.544729	 -4.329140	 0.337866
H	 0.731980	 -3.727573	 -1.114467

11 8 5 9 F
