%nprocshared=4
%mem=2GB
#HF/cc-pVTZ nosymm scf=tight opt=ModRedundant

Mol

0 1
H	 2.342730	 0.877684	 -1.045694
C	 2.360424	 0.000000	 -0.411793
C	 1.173749	 0.000000	 0.526870
H	 3.286567	 0.000000	 0.151574
H	 2.342730	 -0.877684	 -1.045694
O	 -0.000000	 0.000000	 -0.223739
H	 1.203779	 0.876757	 1.172538
H	 1.203779	 -0.876757	 1.172538
C	 -1.173749	 0.000000	 0.526870
C	 -1.737571	 1.403618	 0.562180
H	 -0.970034	 -0.350007	 1.538051
H	 -1.897242	 -0.685983	 0.088149
H	 -1.027346	 2.086572	 1.011210
H	 -2.653110	 1.427513	 1.142128
H	 -1.955534	 1.750241	 -0.440225

11 9 6 3 F
