%nprocshared=4
%mem=2GB
#HF/cc-pVTZ nosymm scf=tight opt=ModRedundant

Mol

0 1
H	 3.889604	 0.356866	 -0.089510
N	 3.091268	 -0.241216	 -0.065538
C	 1.860978	 0.530248	 0.016256
H	 3.192566	 -0.835836	 0.730398
C	 0.644130	 -0.381765	 -0.031064
H	 1.835721	 1.204666	 -0.833114
H	 1.808789	 1.151975	 0.911067
C	 -0.678115	 0.376691	 0.025731
H	 0.693998	 -0.977147	 -0.936845
H	 0.693309	 -1.082142	 0.800523
C	 -1.832655	 -0.370992	 -0.635489
H	 -0.558365	 1.344537	 -0.455816
H	 -0.934561	 0.583281	 1.062277
C	 -3.151232	 0.393335	 -0.582265
H	 -1.578237	 -0.578787	 -1.671049
H	 -1.956903	 -1.336974	 -0.153605
H	 -3.069512	 1.350359	 -1.086911
H	 -3.948569	 -0.164549	 -1.059783
H	 -3.450876	 0.586524	 0.442541

12 8 5 9 F
