%nprocshared=4
%mem=2GB
#HF/6-31G* nosymm scf=tight opt=ModRedundant

Mol

0 1
O	 0.234241	 0.914979	 0.891860
C	 0.486307	 0.169203	 0.000779
C	 1.608116	 -0.841643	 0.000302
O	 -0.198594	 0.128922	 -1.133635
C	 2.990107	 -0.200498	 -0.000684
H	 1.468623	 -1.481519	 -0.865924
H	 1.469683	 -1.481289	 0.866878
H	 3.129736	 0.423364	 -0.875135
H	 3.757882	 -0.966877	 -0.001197
H	 3.130964	 0.423383	 0.873533
C	 -1.290407	 1.031846	 -1.275316
C	 -1.901619	 0.794282	 -2.639975
H	 -0.925948	 2.044742	 -1.171409
H	 -2.002359	 0.851586	 -0.481451
H	 -1.174500	 0.973688	 -3.423728
H	 -2.741391	 1.464943	 -2.790464
H	 -2.256896	 -0.225971	 -2.730080

4 2 3 6 F
