%nprocshared=4
%mem=2GB
#HF/6-31G* nosymm scf=tight opt=ModRedundant

Mol

0 1
H	 2.591676	 2.013956	 0.335017
O	 3.341076	 1.666752	 -0.126416
C	 3.569581	 0.339145	 0.272707
C	 2.539767	 -0.640285	 -0.279495
H	 4.553106	 0.084646	 -0.100901
H	 3.608576	 0.269204	 1.359154
C	 1.115811	 -0.397273	 0.226630
H	 2.556196	 -0.582511	 -1.364741
H	 2.852081	 -1.648031	 -0.010655
C	 0.056510	 -0.627210	 -0.854955
H	 1.038293	 0.620071	 0.599949
H	 0.913856	 -1.057305	 1.070380
C	 -1.393097	 -0.480286	 -0.378095
H	 0.234521	 0.057989	 -1.681793
H	 0.186130	 -1.629083	 -1.258874
C	 -1.792781	 0.936783	 0.042198
H	 -2.051617	 -0.802058	 -1.182228
H	 -1.570420	 -1.165541	 0.449443
C	 -3.273744	 1.054479	 0.408711
H	 -1.568298	 1.628465	 -0.768538
H	 -1.194410	 1.258129	 0.891311
C	 -3.673943	 2.466559	 0.834782
H	 -3.880216	 0.748844	 -0.441152
H	 -3.502093	 0.357105	 1.212086
H	 -3.488048	 3.183394	 0.039915
H	 -4.728865	 2.517925	 1.086051
H	 -3.110674	 2.787973	 1.706438

10 7 4 8 F
