%nprocshared=1
%mem=2GB
#HF/6-31G* nosymm scf=tight opt=ModRedundant

Mol

0 1
O	 -0.449450	 1.935623	 -3.442685
C	 -0.881215	 1.488702	 -2.423728
C	 -0.310151	 0.213172	 -1.829407
C	 -1.988235	 2.180123	 -1.659648
C	 1.010973	 0.494131	 -1.095352
H	 -0.130688	 -0.478272	 -2.645496
H	 -1.022976	 -0.244098	 -1.149105
C	 1.631333	 -0.777471	 -0.511575
H	 1.692634	 0.965298	 -1.794440
H	 0.839219	 1.209869	 -0.292878
C	 2.915987	 -0.544314	 0.291766
H	 1.834597	 -1.479446	 -1.318198
H	 0.900794	 -1.259148	 0.135069
C	 3.373361	 0.914346	 0.347591
H	 3.708709	 -1.142521	 -0.150311
H	 2.780642	 -0.921148	 1.303579
H	 3.506512	 1.320010	 -0.651625
H	 4.322697	 0.999599	 0.867103
H	 2.660624	 1.545032	 0.868198
H	 -2.880487	 1.559573	 -1.667815
H	 -2.211201	 3.135350	 -2.114194
H	 -1.707027	 2.322623	 -0.620215

12 8 11 15 F
