%nprocshared=1
%mem=2GB
#HF/6-31G* nosymm scf=tight opt=ModRedundant

Mol

0 1
H	 0.096467	 1.946948	 -1.477955
C	 0.450463	 1.950655	 -0.439940
C	 0.692068	 0.589600	 0.160137
O	 0.617107	 2.979958	 0.130055
C	 -0.558097	 -0.297372	 0.091132
H	 1.025961	 0.723344	 1.182443
H	 1.499631	 0.118716	 -0.399275
C	 -1.850991	 0.512573	 -0.019058
H	 -0.476753	 -0.965681	 -0.762987
H	 -0.604799	 -0.930658	 0.975228
C	 -3.096943	 -0.368295	 -0.099594
H	 -1.800724	 1.150330	 -0.898172
H	 -1.931651	 1.177355	 0.838044
H	 -3.060452	 -1.020287	 -0.967456
H	 -3.996858	 0.233488	 -0.175704
H	 -3.191959	 -0.995686	 0.782074

6 3 5 9 F
