%nprocshared=4
%mem=2GB
#HF/cc-pVTZ nosymm scf=tight opt=ModRedundant

Mol

0 1
H	 2.534199	 -1.221564	 -0.924259
O	 3.346459	 -1.660866	 -0.753741
C	 3.654431	 -1.598641	 0.613941
C	 2.778019	 -2.496515	 1.474413
H	 4.686382	 -1.911442	 0.698869
H	 3.598985	 -0.571370	 0.969034
C	 2.623242	 -3.919093	 0.941343
H	 3.192526	 -2.524893	 2.477675
H	 1.797628	 -2.032411	 1.550827
C	 1.825033	 -3.979025	 -0.360236
H	 2.136490	 -4.532448	 1.692256
H	 3.608855	 -4.350742	 0.775412
C	 1.701674	 -5.372571	 -0.979160
H	 0.830934	 -3.573541	 -0.188257
H	 2.297562	 -3.322124	 -1.085265
C	 3.009841	 -5.968591	 -1.496077
H	 1.289012	 -6.042855	 -0.230190
H	 0.975714	 -5.342323	 -1.788618
C	 3.483501	 -7.168232	 -0.679428
H	 3.781425	 -5.201776	 -1.485084
H	 2.898094	 -6.272898	 -2.532375
C	 4.787405	 -7.768073	 -1.195101
H	 3.610487	 -6.868801	 0.357294
H	 2.710250	 -7.931867	 -0.682378
H	 5.589371	 -7.037552	 -1.174452
H	 5.096164	 -8.614511	 -0.592342
H	 4.682460	 -8.112344	 -2.218729

10 13 16 20 F
