%nprocshared=4
%mem=2GB
#HF/cc-pVTZ nosymm scf=tight opt=ModRedundant

Mol

0 1
O	 1.216069	 1.304886	 0.000821
C	 1.121787	 0.124983	 0.000110
C	 -0.170912	 -0.649867	 -0.000147
O	 2.167739	 -0.685178	 -0.000678
C	 -1.413045	 0.229353	 0.001137
H	 -0.152877	 -1.303435	 -0.866175
H	 -0.152278	 -1.305116	 0.864586
C	 -2.252833	 0.047118	 1.262032
H	 -2.011707	 0.004740	 -0.874473
H	 -1.116919	 1.267820	 -0.096020
C	 -3.501536	 0.922056	 1.272730
H	 -2.543715	 -0.995886	 1.355685
H	 -1.647642	 0.273410	 2.135972
H	 -4.144606	 0.695211	 0.429173
H	 -4.077707	 0.771962	 2.178365
H	 -3.242062	 1.973697	 1.215253
C	 3.449556	 -0.089977	 -0.000570
H	 3.585694	 0.522473	 -0.879546
H	 4.155805	 -0.904274	 -0.001389
H	 3.586173	 0.521118	 0.879272

9 5 3 6 F
