%nprocshared=1
%mem=2GB
#HF/6-31G* nosymm scf=tight 

Mol

0 1
H	 0.395280	 4.320548	 -1.899909
C	 1.320669	 4.514024	 -1.343272
C	 1.252939	 4.208737	 0.131457
O	 2.279238	 4.934109	 -1.905787
C	 0.740687	 2.789956	 0.415911
H	 2.235145	 4.371247	 0.559909
H	 0.570623	 4.931797	 0.576749
C	 1.698719	 1.690411	 -0.049357
H	 0.571896	 2.693038	 1.484274
H	 -0.230703	 2.654948	 -0.057304
C	 1.180775	 0.282413	 0.250794
H	 2.664172	 1.832527	 0.431841
H	 1.878691	 1.785804	 -1.118492
C	 2.148627	 -0.814315	 -0.201312
H	 0.993066	 0.196420	 1.318081
H	 0.220044	 0.139034	 -0.241976
C	 3.580890	 -0.659131	 0.322722
H	 2.166869	 -0.852443	 -1.289387
H	 1.762857	 -1.776509	 0.128956
C	 4.324889	 0.564933	 -0.213704
H	 4.142010	 -1.551473	 0.056605
H	 3.564836	 -0.624694	 1.410140
H	 4.342616	 0.565491	 -1.300421
H	 3.866655	 1.493402	 0.110242
H	 5.353900	 0.572371	 0.132816

6 3 5 8 F
6 3 2 4 F
3 5 8 12 F
12 8 11 14 F
20 17 14 18 F
