%nprocshared=4
%mem=2GB
#HF/cc-pVTZ nosymm scf=tight opt=ModRedundant

Mol

0 1
H	 1.403637	 -2.655920	 -2.871810
O	 2.262181	 -2.314802	 -3.040245
C	 2.175040	 -1.117221	 -3.766521
C	 1.671449	 0.057391	 -2.941070
H	 3.177442	 -0.910297	 -4.116311
H	 1.548301	 -1.251579	 -4.646065
C	 0.227850	 -0.084488	 -2.463849
H	 2.328451	 0.185565	 -2.086039
H	 1.763245	 0.955452	 -3.547252
C	 -0.253120	 1.127381	 -1.667057
H	 0.137975	 -0.976961	 -1.853589
H	 -0.423615	 -0.226834	 -3.324441
C	 -1.717087	 1.071705	 -1.226652
H	 0.380164	 1.253566	 -0.792269
H	 -0.110816	 2.017571	 -2.273507
C	 -2.041121	 -0.006551	 -0.194127
H	 -1.985083	 2.039244	 -0.811232
H	 -2.349445	 0.933987	 -2.100901
C	 -3.489218	 0.042606	 0.286507
H	 -1.377071	 0.105106	 0.660296
H	 -1.842714	 -0.991005	 -0.607030
C	 -4.219984	 1.311773	 -0.139038
H	 -4.022855	 -0.824300	 -0.093339
H	 -3.510372	 -0.038577	 1.370031
H	 -4.244251	 1.405725	 -1.219696
H	 -5.244345	 1.313233	 0.215630
H	 -3.732090	 2.196311	 0.257073

20 16 19 22 F
