%nprocshared=4
%mem=2GB
#HF/cc-pVTZ nosymm scf=tight opt=ModRedundant

Mol

0 1
O	 -2.817697	 1.304178	 0.001046
C	 -2.664672	 0.129869	 0.003507
C	 -3.797908	 -0.860100	 -0.001145
O	 -1.481217	 -0.452708	 0.001092
H	 -4.408836	 -0.679689	 -0.875387
H	 -3.443486	 -1.878443	 -0.002770
H	 -4.412123	 -0.683688	 0.871605
C	 -0.332055	 0.384012	 -0.000250
C	 0.892252	 -0.506059	 -0.000295
H	 -0.360822	 1.020205	 -0.874146
H	 -0.359817	 1.021310	 0.872861
C	 2.188199	 0.299473	 -0.001416
H	 0.857046	 -1.152781	 -0.871031
H	 0.857910	 -1.151798	 0.871202
C	 2.988270	 0.142774	 -1.291554
H	 1.961306	 1.351533	 0.152422
H	 2.805069	 -0.005057	 0.840431
C	 4.283956	 0.946642	 -1.292609
H	 2.373488	 0.448447	 -2.133376
H	 3.215731	 -0.908136	 -1.446268
H	 4.086956	 2.006814	 -1.173983
H	 4.827137	 0.813476	 -2.220902
H	 4.935589	 0.639935	 -0.481340

16 12 9 13 F
