%nprocshared=4
%mem=2GB
#HF/cc-pVTZ nosymm scf=tight opt=ModRedundant

Mol

0 1
O	 -2.817697	 1.304178	 0.001046
C	 -2.664672	 0.129869	 0.003507
C	 -3.797908	 -0.860100	 -0.001145
O	 -1.481217	 -0.452708	 0.001092
H	 -4.408836	 -0.679689	 -0.875387
H	 -3.443486	 -1.878443	 -0.002770
H	 -4.412123	 -0.683688	 0.871605
C	 -0.332055	 0.384012	 -0.000250
C	 0.892252	 -0.506059	 -0.000295
H	 -0.360822	 1.020205	 -0.874146
H	 -0.359817	 1.021310	 0.872861
C	 2.188199	 0.299473	 -0.001416
H	 0.857046	 -1.152781	 -0.871031
H	 0.857910	 -1.151798	 0.871202
C	 2.608499	 0.753607	 -1.396492
H	 2.073952	 1.170983	 0.638423
H	 2.985771	 -0.296335	 0.435465
C	 3.904112	 1.557593	 -1.398193
H	 1.813013	 1.350562	 -1.833417
H	 2.723131	 -0.116459	 -2.036751
H	 3.809841	 2.453170	 -0.793297
H	 4.174016	 1.863972	 -2.402080
H	 4.726948	 0.974879	 -0.997896

16 12 9 13 F
