%nprocshared=4
%mem=2GB
#HF/cc-pVTZ nosymm scf=tight opt=ModRedundant

Mol

0 1
O	 -1.278239	 1.034789	 -0.784693
C	 -1.204115	 0.062668	 -0.112312
C	 -2.386398	 -0.667698	 0.460323
O	 -0.068058	 -0.518372	 0.226882
H	 -2.382952	 -1.693172	 0.114333
H	 -3.296656	 -0.175702	 0.158400
H	 -2.312537	 -0.685191	 1.540100
C	 0.174459	 -0.838073	 1.600846
C	 1.679987	 -0.844729	 1.775355
C	 -0.468673	 -2.170343	 1.941500
H	 -0.265366	 -0.059196	 2.204992
H	 2.099278	 0.119388	 1.517628
H	 1.933082	 -1.063912	 2.805701
H	 2.136669	 -1.596506	 1.142735
H	 -0.275622	 -2.419819	 2.978319
H	 -1.539320	 -2.127727	 1.798161
H	 -0.061476	 -2.958958	 1.318957

8 4 2 1 F
