%nprocshared=4
%mem=2GB
#HF/cc-pVTZ nosymm scf=tight opt=ModRedundant

Mol

0 1
O	 3.219313	 0.959291	 -0.614106
C	 2.698710	 0.058177	 -0.050237
C	 1.246364	 -0.005813	 0.348416
O	 3.344101	 -1.038700	 0.312317
C	 0.453207	 1.232821	 -0.049003
H	 0.839270	 -0.907818	 -0.092281
H	 1.216683	 -0.160521	 1.422434
C	 -0.998367	 1.217982	 0.432195
H	 0.481498	 1.345443	 -1.127236
H	 0.951413	 2.105557	 0.354893
C	 -1.882951	 0.151251	 -0.211235
H	 -1.429490	 2.193659	 0.228843
H	 -1.019755	 1.099323	 1.513279
C	 -2.240690	 -0.983403	 0.744992
H	 -2.796920	 0.616955	 -0.572695
H	 -1.389170	 -0.268393	 -1.082794
C	 -3.119331	 -2.058122	 0.111160
H	 -2.748632	 -0.573205	 1.614516
H	 -1.326929	 -1.441870	 1.116092
C	 -3.473898	 -3.187178	 1.073080
H	 -4.032867	 -1.601553	 -0.259944
H	 -2.611865	 -2.471103	 -0.756469
H	 -4.097250	 -3.932216	 0.592109
H	 -4.014074	 -2.811199	 1.935611
H	 -2.581790	 -3.686899	 1.435890
C	 4.720529	 -1.114346	 0.001449
H	 4.874321	 -1.055557	 -1.065852
H	 5.057824	 -2.067950	 0.373977
H	 5.264321	 -0.313596	 0.480350

15 11 8 5 F
