%nprocshared=4
%mem=2GB
#HF/cc-pVTZ nosymm scf=tight opt=ModRedundant

Mol

0 1
H	 -2.816458	 -0.841657	 -0.064679
N	 -1.878861	 -0.711874	 0.250184
C	 -1.341419	 0.551458	 -0.220231
H	 -1.333674	 -1.468530	 -0.105118
C	 0.082190	 0.731516	 0.254705
H	 -1.357065	 0.652078	 -1.304747
H	 -1.939897	 1.357530	 0.189797
O	 0.372093	 2.095890	 0.301044
H	 0.200567	 0.290194	 1.243337
H	 0.761803	 0.226271	 -0.427776
C	 1.680298	 2.395055	 0.659259
H	 1.785890	 3.470325	 0.664636
H	 1.917638	 2.016006	 1.651069
H	 2.392175	 1.976425	 -0.048231

8 5 3 6 F
