%nprocshared=4
%mem=2GB
#HF/cc-pVTZ nosymm scf=tight opt=ModRedundant

Mol

0 1
O	 -2.071633	 -1.227563	 -0.223463
C	 -1.652164	 -0.152425	 0.058082
C	 -0.327811	 0.006324	 0.778296
C	 -2.402515	 1.108629	 -0.298924
C	 -0.318683	 1.271837	 1.644216
H	 -0.129563	 -0.863312	 1.395998
H	 0.447915	 0.074457	 0.026335
C	 -0.340618	 2.552848	 0.815506
H	 0.561133	 1.274401	 2.282660
H	 -1.179907	 1.247857	 2.303065
C	 -0.344343	 3.813968	 1.672667
H	 0.520664	 2.568559	 0.153335
H	 -1.218209	 2.548268	 0.175700
H	 0.539886	 3.864718	 2.299243
H	 -1.211712	 3.841709	 2.323259
H	 -0.364148	 4.705209	 1.056470
H	 -3.240910	 0.874416	 -0.936711
H	 -1.747554	 1.818823	 -0.790984
H	 -2.760419	 1.579708	 0.610998

5 3 2 4 F
