%nprocshared=4
%mem=2GB
#HF/cc-pVTZ nosymm scf=tight opt=ModRedundant

Mol

0 1
H	 -2.816458	 -0.841657	 -0.064679
N	 -1.878861	 -0.711874	 0.250184
C	 -1.341419	 0.551458	 -0.220231
H	 -1.333674	 -1.468530	 -0.105118
C	 0.082190	 0.731516	 0.254705
H	 -1.357065	 0.652078	 -1.304747
H	 -1.939897	 1.357530	 0.189797
O	 0.066115	 1.059475	 1.611131
H	 0.642921	 -0.189104	 0.099105
H	 0.560919	 1.523085	 -0.317279
C	 1.317038	 1.319855	 2.155753
H	 1.181684	 1.556827	 3.201176
H	 1.973285	 0.455771	 2.075788
H	 1.797198	 2.162879	 1.664509

8 5 3 6 F
