%nprocshared=1
%mem=2GB
#HF/6-31G* nosymm scf=tight opt=ModRedundant

Mol

0 1
O	 2.451440	 0.935712	 0.714315
C	 2.701189	 0.057885	 -0.047330
C	 2.340502	 0.034950	 -1.512994
O	 3.347903	 -1.046386	 0.304773
C	 1.604307	 1.292674	 -1.969349
H	 3.261582	 -0.120157	 -2.065030
H	 1.738806	 -0.854157	 -1.683720
C	 1.138830	 1.240122	 -3.428480
H	 2.243687	 2.157225	 -1.818138
H	 0.743136	 1.441438	 -1.326950
C	 2.265857	 1.218268	 -4.465033
H	 0.513165	 2.110106	 -3.613938
H	 0.497957	 0.371646	 -3.573536
C	 1.751275	 1.277117	 -5.904735
H	 2.932197	 2.060892	 -4.286723
H	 2.868757	 0.321124	 -4.344135
C	 2.868546	 1.250597	 -6.949308
H	 1.157364	 2.179767	 -6.037883
H	 1.076467	 0.440774	 -6.080420
C	 2.346442	 1.313556	 -8.384280
H	 3.544355	 2.085102	 -6.774593
H	 3.460655	 0.346924	 -6.820611
H	 3.161505	 1.292967	 -9.101118
H	 1.778658	 2.223820	 -8.555264
H	 1.693848	 0.472555	 -8.601336
C	 4.728119	 -1.109107	 -0.004993
H	 4.882018	 -1.033965	 -1.071845
H	 5.068212	 -2.067527	 0.355250
H	 5.265056	 -0.311663	 0.488280

1 2 4 26 F
