%nprocshared=4
%mem=2GB
#HF/cc-pVTZ nosymm scf=tight opt=ModRedundant

Mol

0 1
O	 1.371313	 1.045657	 0.700935
C	 1.121787	 0.124983	 0.000110
C	 -0.170912	 -0.649867	 -0.000147
O	 1.969101	 -0.353489	 -0.896273
C	 -1.413045	 0.229353	 0.001137
H	 -0.152877	 -1.303435	 -0.866175
H	 -0.152278	 -1.305116	 0.864586
C	 -1.935340	 0.499559	 -1.406878
H	 -1.187207	 1.167565	 0.495398
H	 -2.186536	 -0.244309	 0.595191
C	 -3.178917	 1.381771	 -1.417387
H	 -1.154865	 0.971134	 -1.998245
H	 -2.159708	 -0.444131	 -1.897128
H	 -2.977164	 2.346570	 -0.964569
H	 -3.526979	 1.556740	 -2.428780
H	 -3.989331	 0.921015	 -0.862849
C	 3.226978	 0.281687	 -1.004047
H	 3.107866	 1.319775	 -1.276836
H	 3.762124	 -0.246898	 -1.776112
H	 3.765395	 0.222432	 -0.069799

9 5 3 6 F
