%nprocshared=4
%mem=2GB
#HF/cc-pVTZ nosymm scf=tight opt=ModRedundant

Mol

0 1
H	 0.856038	 -5.089585	 -2.816150
C	 0.965301	 -4.338033	 -2.043273
C	 -0.223827	 -3.383810	 -2.033989
H	 1.060975	 -4.853641	 -1.093519
H	 1.894756	 -3.809301	 -2.226504
C	 -0.111018	 -2.309672	 -0.962323
H	 -1.143714	 -3.935865	 -1.876484
H	 -0.311453	 -2.908619	 -3.008203
N	 -1.264174	 -1.435622	 -0.963929
H	 -0.048379	 -2.782173	 0.013376
H	 0.824498	 -1.758897	 -1.098486
C	 -1.215959	 -0.382435	 0.027143
H	 -1.384672	 -1.038376	 -1.872222
C	 -2.451944	 0.502410	 -0.038737
H	 -1.158706	 -0.845550	 1.007666
H	 -0.320424	 0.238067	 -0.073211
C	 -3.752217	 -0.292550	 0.005776
H	 -2.407325	 1.093801	 -0.946480
H	 -2.431979	 1.206234	 0.790023
H	 -3.817783	 -0.982946	 -0.828547
H	 -4.612613	 0.364348	 -0.042306
H	 -3.830160	 -0.871666	 0.919868

15 12 14 18 F
