%nprocshared=1
%mem=2GB
#HF/6-31G* nosymm scf=tight 

Mol

0 1
H	 3.276176	 0.174363	 -0.109463
N	 2.434251	 -0.367735	 -0.081097
C	 1.267428	 0.496480	 0.024474
H	 2.501951	 -0.965776	 0.720575
C	 -0.016086	 -0.325158	 -0.029487
H	 1.288818	 1.183521	 -0.816092
H	 1.267576	 1.109062	 0.929528
C	 -1.282277	 0.529072	 0.046735
H	 -0.012495	 -0.908639	 -0.945788
H	 -0.015903	 -1.041248	 0.791956
C	 -1.579708	 1.026180	 1.460991
H	 -2.129483	 -0.049231	 -0.316301
H	 -1.186683	 1.382366	 -0.621628
H	 -1.715644	 0.195331	 2.147236
H	 -2.483526	 1.627053	 1.485151
H	 -0.765775	 1.637383	 1.840682

6 3 5 9 F
1 2 3 6 F
