%nprocshared=4
%mem=2GB
#HF/cc-pVTZ nosymm scf=tight opt=ModRedundant

Mol

0 1
H	 3.889604	 0.356866	 -0.089510
N	 3.091268	 -0.241216	 -0.065538
C	 1.860978	 0.530248	 0.016256
H	 3.192566	 -0.835836	 0.730398
C	 0.644130	 -0.381765	 -0.031064
H	 1.835721	 1.204666	 -0.833114
H	 1.808789	 1.151975	 0.911067
C	 -0.678115	 0.376691	 0.025731
H	 0.693998	 -0.977147	 -0.936845
H	 0.693309	 -1.082142	 0.800523
C	 -1.700498	 -0.260285	 0.962853
H	 -1.101059	 0.437275	 -0.974470
H	 -0.496127	 1.401653	 0.340702
C	 -3.023138	 0.497270	 1.011921
H	 -1.883359	 -1.284536	 0.650179
H	 -1.281759	 -0.318533	 1.963871
H	 -3.484746	 0.542750	 0.031060
H	 -3.725286	 0.019153	 1.685270
H	 -2.878249	 1.516501	 1.354720

12 8 5 9 F
