%nprocshared=1
%mem=2GB
#HF/6-31G* nosymm scf=tight opt=ModRedundant

Mol

0 1
O	 2.862325	 1.357334	 0.000267
C	 2.843464	 0.164689	 -0.000222
C	 1.546494	 -0.624492	 -0.000609
C	 4.124123	 -0.644674	 -0.000428
C	 0.291004	 0.242674	 0.000989
H	 1.557904	 -1.283758	 -0.867573
H	 1.558622	 -1.285963	 0.864672
C	 -0.994322	 -0.586602	 0.000262
H	 0.309117	 0.896430	 -0.865270
H	 0.309661	 0.894078	 0.869017
C	 -2.259874	 0.272531	 0.000494
H	 -1.004862	 -1.240012	 -0.870939
H	 -1.005220	 -1.241071	 0.870675
C	 -1.975732	 1.768886	 0.142609
H	 -2.911655	 -0.047856	 0.811390
H	 -2.812981	 0.097928	 -0.920692
C	 -3.244795	 2.620452	 0.142238
H	 -1.423910	 1.944809	 1.063677
H	 -1.325508	 2.090648	 -0.668278
H	 -3.901422	 2.345685	 0.962904
H	 -3.011008	 3.675673	 0.244973
H	 -3.801743	 2.493467	 -0.781791
H	 4.165367	 -1.288615	 -0.874074
H	 4.976217	 0.020734	 -0.001915
H	 4.166763	 -1.286207	 0.874930

15 11 8 12 F
