%nprocshared=4
%mem=2GB
#HF/cc-pVTZ nosymm scf=tight opt=ModRedundant

Mol

0 1
H	 -3.144994	 -1.202467	 -0.018751
O	 -2.321472	 -0.864941	 -0.318626
C	 -2.021813	 0.336996	 0.342658
C	 -0.669613	 0.837286	 -0.127252
H	 -2.780861	 1.084746	 0.127159
H	 -2.006390	 0.184138	 1.420053
C	 0.490865	 -0.082543	 0.241244
H	 -0.708709	 0.967192	 -1.204587
H	 -0.507562	 1.822272	 0.303070
C	 1.630124	 0.646905	 0.947362
H	 0.866697	 -0.559284	 -0.656823
H	 0.124200	 -0.880512	 0.883836
C	 2.786993	 -0.273089	 1.322929
H	 1.997866	 1.442577	 0.305198
H	 1.249955	 1.130730	 1.843506
H	 3.211673	 -0.745035	 0.443252
H	 3.579758	 0.274252	 1.820167
H	 2.458908	 -1.061107	 1.992879

10 7 4 8 F
