%nprocshared=4
%mem=2GB
#HF/cc-pVTZ nosymm scf=tight opt=ModRedundant

Mol

0 1
O	 -1.510770	 1.240811	 -0.054933
C	 -1.081510	 0.147522	 0.122720
C	 0.327029	 -0.064006	 0.641890
C	 -1.903028	 -1.084121	 -0.174656
C	 1.349460	 -0.017068	 -0.500215
H	 0.399029	 -1.014606	 1.159950
H	 0.538021	 0.726928	 1.350471
C	 2.755460	 0.308971	 -0.009700
H	 1.361911	 -0.970442	 -1.020563
H	 1.029464	 0.726324	 -1.220838
H	 3.454883	 0.347107	 -0.836370
H	 3.110815	 -0.438748	 0.691293
H	 2.780025	 1.270688	 0.490668
H	 -1.341891	 -1.779207	 -0.789259
H	 -2.820449	 -0.808163	 -0.671328
H	 -2.133314	 -1.593056	 0.755831

9 5 3 2 F
