%nprocshared=4
%mem=2GB
#HF/cc-pVTZ nosymm scf=tight opt=ModRedundant

Mol

0 1
H	 2.614283	 2.028610	 0.296620
O	 3.358864	 1.662087	 -0.142800
C	 3.565468	 0.338079	 0.273842
C	 4.924343	 0.110359	 0.919045
H	 2.784269	 0.129173	 0.992220
H	 3.428210	 -0.347882	 -0.559866
C	 6.107297	 0.291575	 -0.029443
H	 5.024285	 0.787547	 1.762007
H	 4.937835	 -0.899527	 1.321968
C	 7.451989	 0.022800	 0.644649
H	 6.097430	 1.301284	 -0.426170
H	 5.993821	 -0.379682	 -0.879044
C	 8.668144	 0.117661	 -0.278511
H	 7.578291	 0.711642	 1.476376
H	 7.427418	 -0.972954	 1.078630
C	 8.969817	 1.518267	 -0.808642
H	 9.537820	 -0.240331	 0.265578
H	 8.536130	 -0.563234	 -1.116431
C	 10.247051	 1.579035	 -1.642542
H	 9.056916	 2.206861	 0.029046
H	 8.140826	 1.876143	 -1.411718
C	 10.549217	 2.975260	 -2.176531
H	 11.084365	 1.234625	 -1.041823
H	 10.165060	 0.885393	 -2.475129
H	 10.668918	 3.686750	 -1.366165
H	 11.462261	 2.983570	 -2.760815
H	 9.746665	 3.333546	 -2.812844

4 3 2 1 F
