%nprocshared=1
%mem=2GB
#HF/6-31G* nosymm scf=tight opt=ModRedundant

Mol

0 1
H	 1.633814	 4.839651	 -0.507754
C	 2.288303	 4.667559	 0.355756
C	 1.634374	 3.971949	 1.522424
O	 3.421859	 5.022414	 0.326081
C	 0.930920	 2.670571	 1.112761
H	 2.387537	 3.795960	 2.281688
H	 0.899200	 4.661858	 1.934978
C	 1.894540	 1.577042	 0.644862
H	 0.357894	 2.307721	 1.960857
H	 0.207248	 2.882896	 0.327285
C	 1.180775	 0.282413	 0.250794
H	 2.610311	 1.370301	 1.437816
H	 2.478010	 1.936359	 -0.200711
C	 2.148627	 -0.814315	 -0.201312
H	 0.591715	 -0.065974	 1.095405
H	 0.473669	 0.490319	 -0.551179
C	 3.580890	 -0.659131	 0.322722
H	 2.166869	 -0.852443	 -1.289387
H	 1.762857	 -1.776509	 0.128956
C	 4.324889	 0.564933	 -0.213704
H	 4.142010	 -1.551473	 0.056605
H	 3.564836	 -0.624694	 1.410140
H	 4.342616	 0.565491	 -1.300421
H	 3.866655	 1.493402	 0.110242
H	 5.353900	 0.572371	 0.132816

8 11 14 18 F
