%nprocshared=4
%mem=2GB
#HF/6-31G* nosymm scf=tight opt=ModRedundant

Mol

0 1
O	 -2.042549	 -1.228399	 -0.269030
C	 -1.653912	 -0.146171	 0.050137
C	 -0.332303	 0.024011	 0.778412
C	 -2.438579	 1.106236	 -0.272369
C	 -0.535221	 -0.016700	 2.301251
H	 0.370460	 -0.748250	 0.478215
H	 0.079153	 0.985841	 0.492914
C	 0.769164	 0.181960	 3.074650
H	 -0.980514	 -0.967832	 2.587858
H	 -1.247232	 0.755638	 2.576344
C	 0.568952	 0.150880	 4.589298
H	 1.480792	 -0.589161	 2.787626
H	 1.213988	 1.131902	 2.787754
H	 0.156309	 -0.800938	 4.911509
H	 -0.113377	 0.932486	 4.910176
H	 1.509187	 0.297212	 5.111381
H	 -3.277823	 0.863061	 -0.908988
H	 -1.806773	 1.843019	 -0.759671
H	 -2.802853	 1.554979	 0.648059

5 3 2 4 F
