%nprocshared=4
%mem=2GB
#HF/cc-pVTZ nosymm scf=tight opt=ModRedundant

Mol

0 1
H	 -3.436473	 1.252944	 -1.023892
O	 -3.458596	 0.315260	 -0.960865
C	 -3.176635	 -0.080824	 0.355601
C	 -1.763371	 0.265266	 0.799691
H	 -3.321825	 -1.153438	 0.379502
H	 -3.895468	 0.357385	 1.043382
C	 -0.673390	 -0.426948	 -0.013392
H	 -1.631049	 1.344913	 0.747560
H	 -1.664587	 -0.001624	 1.849167
C	 0.737842	 -0.043159	 0.423759
H	 -0.806103	 -0.190518	 -1.063345
H	 -0.797221	 -1.503753	 0.074146
C	 0.867941	 0.121364	 1.936721
H	 1.433297	 -0.799041	 0.071801
H	 1.026167	 0.886628	 -0.062268
C	 0.094087	 1.302553	 2.524760
H	 1.919388	 0.217389	 2.197660
H	 0.520354	 -0.789928	 2.415626
C	 0.600767	 2.676413	 2.092410
H	 0.143141	 1.239596	 3.607537
H	 -0.956868	 1.207993	 2.264047
H	 1.651705	 2.797578	 2.335154
H	 0.053405	 3.464321	 2.597224
H	 0.487457	 2.833937	 1.026599

13 10 7 11 F
