%nprocshared=4
%mem=2GB
#HF/cc-pVTZ nosymm scf=tight opt=ModRedundant

Mol

0 1
H	 -3.436473	 1.252944	 -1.023892
O	 -3.458596	 0.315260	 -0.960865
C	 -3.176635	 -0.080824	 0.355601
C	 -1.763371	 0.265266	 0.799691
H	 -3.321825	 -1.153438	 0.379502
H	 -3.895468	 0.357385	 1.043382
C	 -0.673390	 -0.426948	 -0.013392
H	 -1.631049	 1.344913	 0.747560
H	 -1.664587	 -0.001624	 1.849167
C	 0.737842	 -0.043159	 0.423759
H	 -0.806103	 -0.190518	 -1.063345
H	 -0.797221	 -1.503753	 0.074146
C	 1.689034	 -1.237008	 0.478591
H	 1.125198	 0.708605	 -0.257192
H	 0.697070	 0.425797	 1.404715
C	 3.095089	 -0.916972	 0.988917
H	 1.760786	 -1.683765	 -0.510404
H	 1.254523	 -1.997099	 1.122083
C	 3.912448	 -0.004216	 0.077904
H	 3.633700	 -1.850774	 1.118097
H	 3.024594	 -0.469793	 1.977088
H	 3.994889	 -0.423215	 -0.919954
H	 4.916935	 0.125179	 0.464563
H	 3.470124	 0.980544	 -0.012654

13 10 7 11 F
