%nprocshared=4
%mem=2GB
#HF/cc-pVTZ nosymm scf=tight opt=ModRedundant

Mol

0 1
H	 2.253592	 -3.139569	 1.876871
C	 2.370463	 -2.343016	 1.151645
C	 1.096027	 -1.513927	 1.037300
H	 3.208845	 -1.730832	 1.466898
H	 2.632701	 -2.797478	 0.202060
C	 1.215950	 -0.382441	 0.027187
H	 0.837952	 -1.091811	 2.002173
H	 0.270033	 -2.161247	 0.752190
N	 0.000002	 0.398953	 -0.040851
H	 2.024560	 0.278737	 0.324110
H	 1.496788	 -0.794459	 -0.946699
C	 -1.215959	 -0.382435	 0.027143
H	 -0.000012	 1.086078	 0.683841
C	 -2.451944	 0.502410	 -0.038737
H	 -1.221867	 -1.069392	 -0.813828
H	 -1.259993	 -0.999709	 0.929424
C	 -3.752217	 -0.292550	 0.005776
H	 -2.407325	 1.093801	 -0.946480
H	 -2.431979	 1.206234	 0.790023
H	 -3.817783	 -0.982946	 -0.828547
H	 -4.612613	 0.364348	 -0.042306
H	 -3.830160	 -0.871666	 0.919868

10 6 9 12 F
