%nprocshared=4
%mem=2GB
#HF/cc-pVTZ nosymm scf=tight opt=ModRedundant

Mol

0 1
O	 3.073138	 -2.413790	 -1.041352
C	 2.574127	 -2.072921	 -0.023620
C	 3.256769	 -1.291386	 1.069783
O	 1.317782	 -2.342573	 0.292610
C	 4.707950	 -0.949769	 0.755738
H	 2.658685	 -0.404772	 1.242302
H	 3.182210	 -1.881229	 1.977999
C	 4.897527	 -0.223252	 -0.576580
H	 5.300007	 -1.858302	 0.766064
H	 5.097333	 -0.331299	 1.555041
C	 3.940996	 0.943033	 -0.819962
H	 4.769886	 -0.947820	 -1.375251
H	 5.923357	 0.130507	 -0.652791
C	 3.847469	 1.895969	 0.368714
H	 4.269019	 1.495629	 -1.697407
H	 2.946859	 0.570156	 -1.048413
C	 3.167805	 1.280888	 1.588757
H	 3.305315	 2.789984	 0.070142
H	 4.846642	 2.225382	 0.644407
C	 3.076537	 2.239471	 2.771366
H	 2.169219	 0.951435	 1.314883
H	 3.710105	 0.388744	 1.890165
H	 2.589732	 1.772076	 3.619628
H	 2.509097	 3.127241	 2.512550
H	 4.062102	 2.560840	 3.091664
C	 0.824678	 -3.623490	 -0.043565
H	 -0.139967	 -3.792406	 0.411591
H	 1.544729	 -4.329140	 0.337866
H	 0.731980	 -3.727573	 -1.114467

1 2 4 26 F
