%nprocshared=4
%mem=2GB
#HF/cc-pVTZ nosymm scf=tight opt=ModRedundant

Mol

0 1
H	 -3.436473	 1.252944	 -1.023892
O	 -3.458596	 0.315260	 -0.960865
C	 -3.176635	 -0.080824	 0.355601
C	 -1.763371	 0.265266	 0.799691
H	 -3.321825	 -1.153438	 0.379502
H	 -3.895468	 0.357385	 1.043382
C	 -0.673390	 -0.426948	 -0.013392
H	 -1.631049	 1.344913	 0.747560
H	 -1.664587	 -0.001624	 1.849167
C	 0.737842	 -0.043159	 0.423759
H	 -0.806103	 -0.190518	 -1.063345
H	 -0.797221	 -1.503753	 0.074146
C	 1.824000	 -0.743224	 -0.390623
H	 0.850588	 1.033777	 0.343840
H	 0.868587	 -0.286314	 1.476203
C	 1.836215	 -0.395979	 -1.880294
H	 1.720553	 -1.819727	 -0.275345
H	 2.792345	 -0.486520	 0.030127
C	 0.611977	 -0.874177	 -2.657284
H	 2.723572	 -0.833853	 -2.327104
H	 1.938917	 0.679805	 -1.996742
H	 0.480326	 -1.946623	 -2.554307
H	 0.717722	 -0.655502	 -3.713807
H	 -0.297888	 -0.395244	 -2.316148

17 13 10 7 F
