%nprocshared=4
%mem=2GB
#HF/cc-pVTZ nosymm scf=tight opt=ModRedundant

Mol

0 1
H	 1.098346	 1.848098	 0.285791
C	 1.555244	 0.871819	 0.170532
N	 0.526300	 -0.128137	 0.000000
H	 2.121680	 0.666190	 1.069924
H	 2.253345	 0.930139	 -0.667218
C	 -0.247113	 0.037112	 -1.209233
H	 0.930263	 -1.039138	 0.023434
H	 -0.996493	 -0.743733	 -1.271440
H	 0.397975	 -0.057351	 -2.073512
H	 -0.763794	 0.997171	 -1.271673

2 3 6 8 F
