%nprocshared=4
%mem=2GB
#HF/6-31G* nosymm scf=tight opt=ModRedundant

Mol

0 1
H	 -1.334351	 1.734435	 2.672011
O	 -1.004190	 2.384976	 2.068540
C	 -0.545330	 1.756556	 0.901696
C	 0.781323	 1.056640	 1.137862
H	 -1.270773	 1.044894	 0.517471
H	 -0.417679	 2.530281	 0.157717
O	 1.171513	 0.459272	 -0.058250
H	 0.674463	 0.306700	 1.924089
H	 1.520914	 1.780028	 1.475943
C	 2.397842	 -0.198080	 -0.002151
H	 2.508049	 -0.905315	 -0.822092
H	 3.173794	 0.550865	 -0.078850
H	 2.517602	 -0.735921	 0.936026

4 7 10 13 F
