%nprocshared=4
%mem=2GB
#HF/cc-pVTZ nosymm scf=tight opt=ModRedundant

Mol

0 1
O	 -0.694481	 1.313155	 -0.204815
C	 -0.862519	 0.151932	 -0.046791
C	 -2.171428	 -0.477048	 0.339095
O	 0.085519	 -0.757083	 -0.192238
H	 -2.467997	 -1.191667	 -0.417688
H	 -2.923379	 0.287970	 0.444097
H	 -2.053854	 -1.015120	 1.270901
C	 0.870762	 -0.743604	 -1.378699
C	 2.036272	 0.217237	 -1.267932
H	 0.241052	 -0.495860	 -2.218880
H	 1.219068	 -1.759740	 -1.487795
H	 2.647597	 0.151076	 -2.160880
H	 1.688867	 1.236488	 -1.168844
H	 2.654673	 -0.028303	 -0.413014

8 4 2 1 F
