%nprocshared=4
%mem=2GB
#HF/cc-pVTZ nosymm scf=tight opt=ModRedundant

Mol

0 1
H	 -2.816458	 -0.841657	 -0.064679
N	 -1.878861	 -0.711874	 0.250184
C	 -1.341419	 0.551458	 -0.220231
H	 -1.333674	 -1.468530	 -0.105118
C	 -0.536373	 1.223210	 0.868483
H	 -0.710388	 0.452258	 -1.102559
H	 -2.167054	 1.203790	 -0.482607
O	 0.579374	 0.435204	 1.154599
H	 -0.221175	 2.212066	 0.538353
H	 -1.151127	 1.340644	 1.757986
C	 1.369844	 0.911081	 2.192828
H	 2.197270	 0.228133	 2.320631
H	 1.764734	 1.900256	 1.970814
H	 0.812348	 0.964701	 3.124968

6 3 2 4 F
