%nprocshared=4
%mem=2GB
#HF/cc-pVTZ nosymm scf=tight opt=ModRedundant

Mol

0 1
H	 0.372786	 -3.063731	 -4.270100
O	 1.311417	 -3.054546	 -4.296892
C	 1.799065	 -1.830421	 -3.814203
C	 1.658666	 -1.673376	 -2.307448
H	 2.845903	 -1.802073	 -4.084955
H	 1.312159	 -1.000761	 -4.323160
C	 0.666464	 -0.594563	 -1.879025
H	 1.363450	 -2.629840	 -1.886517
H	 2.640650	 -1.439959	 -1.902947
C	 1.141037	 0.816049	 -2.225134
H	 0.497702	 -0.666813	 -0.809772
H	 -0.293048	 -0.776123	 -2.360335
C	 0.151932	 1.932379	 -1.884937
H	 2.085753	 1.008195	 -1.722324
H	 1.352177	 0.857405	 -3.290112
C	 -1.136723	 1.926670	 -2.705351
H	 -0.107908	 1.848744	 -0.833264
H	 0.645464	 2.895162	 -1.997326
C	 -2.131780	 2.996139	 -2.262058
H	 -1.605795	 0.948169	 -2.628052
H	 -0.910720	 2.073471	 -3.757195
C	 -3.417987	 2.995672	 -3.081547
H	 -2.373503	 2.848447	 -1.213090
H	 -1.661861	 3.973653	 -2.330645
H	 -3.928783	 2.041283	 -3.007608
H	 -4.102231	 3.763777	 -2.739595
H	 -3.213755	 3.178882	 -4.131345

8 4 3 2 F
