%nprocshared=4
%mem=2GB
#HF/cc-pVTZ nosymm scf=tight opt=ModRedundant

Mol

0 1
H	 4.305998	 0.027599	 1.570967
C	 3.575889	 -0.484314	 0.955342
C	 2.271654	 0.302038	 0.882725
H	 4.009725	 -0.614938	 -0.030438
H	 3.419654	 -1.470304	 1.380114
C	 1.215950	 -0.382441	 0.027187
H	 2.455185	 1.292361	 0.481050
H	 1.880448	 0.443614	 1.887459
N	 0.000002	 0.398953	 -0.040851
H	 1.595858	 -0.502192	 -0.983010
H	 1.037210	 -1.391429	 0.410696
C	 -1.215959	 -0.382435	 0.027143
H	 -0.000012	 1.086078	 0.683841
C	 -2.451944	 0.502410	 -0.038737
H	 -1.221867	 -1.069392	 -0.813828
H	 -1.259993	 -0.999709	 0.929424
C	 -3.752217	 -0.292550	 0.005776
H	 -2.407325	 1.093801	 -0.946480
H	 -2.431979	 1.206234	 0.790023
H	 -3.817783	 -0.982946	 -0.828547
H	 -4.612613	 0.364348	 -0.042306
H	 -3.830160	 -0.871666	 0.919868

10 6 9 12 F
