%nprocshared=4
%mem=2GB
#HF/cc-pVTZ nosymm scf=tight opt=ModRedundant

Mol

0 1
H	 6.830139	 -7.991321	 -3.594019
O	 6.919685	 -7.395448	 -2.873778
C	 7.556133	 -6.217560	 -3.294236
C	 9.068427	 -6.348672	 -3.396530
H	 7.145738	 -5.991950	 -4.269252
H	 7.296618	 -5.390394	 -2.636287
C	 9.541141	 -7.601003	 -4.131417
H	 9.459054	 -5.464663	 -3.891602
H	 9.472696	 -6.349872	 -2.387094
C	 9.239244	 -8.886712	 -3.362882
H	 10.608653	 -7.529772	 -4.311269
H	 9.061687	 -7.648214	 -5.107727
C	 9.625033	 -10.178051	 -4.086667
H	 9.740663	 -8.852281	 -2.398713
H	 8.174616	 -8.918482	 -3.148344
C	 8.815289	 -10.479862	 -5.346417
H	 10.675322	 -10.116028	 -4.357911
H	 9.541380	 -11.014571	 -3.396457
C	 7.357052	 -10.821878	 -5.051496
H	 9.276413	 -11.309480	 -5.877987
H	 8.845709	 -9.630792	 -6.022552
C	 6.689022	 -9.833131	 -4.101754
H	 6.800988	 -10.856426	 -5.984328
H	 7.301702	 -11.821132	 -4.627833
H	 6.699422	 -8.828631	 -4.511766
H	 5.655763	 -10.103304	 -3.916041
H	 7.199621	 -9.803016	 -3.144814

4 3 2 1 F
