%nprocshared=4
%mem=2GB
#HF/cc-pVTZ nosymm scf=tight opt=ModRedundant

Mol

0 1
H	 1.466675	 3.717623	 -2.236078
N	 0.698658	 3.083197	 -2.293258
C	 0.653694	 2.208972	 -1.131721
H	 0.815060	 2.554774	 -3.132644
C	 -0.565446	 1.300243	 -1.183058
H	 0.596024	 2.835209	 -0.247747
H	 1.551671	 1.598906	 -1.024898
C	 -0.678115	 0.376691	 0.025731
H	 -1.453549	 1.918375	 -1.264244
H	 -0.523419	 0.701394	 -2.090855
C	 -1.900706	 -0.535531	 -0.022488
H	 -0.715907	 0.975164	 0.933121
H	 0.218943	 -0.233511	 0.101974
C	 -3.220513	 0.226854	 0.028039
H	 -1.865036	 -1.134397	 -0.928236
H	 -1.857948	 -1.236381	 0.806820
H	 -3.309098	 0.911849	 -0.808725
H	 -4.066838	 -0.449485	 -0.008086
H	 -3.301685	 0.809374	 0.939860

12 8 11 15 F
