%nprocshared=4
%mem=2GB
#HF/6-31G* nosymm scf=tight opt=ModRedundant

Mol

0 1
O	 -2.042549	 -1.228399	 -0.269030
C	 -1.653912	 -0.146171	 0.050137
C	 -0.332303	 0.024011	 0.778412
C	 -2.438579	 1.106236	 -0.272369
C	 0.845713	 -0.001731	 -0.208243
H	 -0.323783	 0.953829	 1.340327
H	 -0.235459	 -0.796807	 1.480410
C	 1.074923	 1.349453	 -0.887063
H	 0.671679	 -0.760280	 -0.969425
H	 1.740910	 -0.299918	 0.329203
C	 2.251409	 1.329153	 -1.862088
H	 0.171702	 1.646422	 -1.415670
H	 1.248227	 2.107059	 -0.126426
H	 2.091937	 0.603979	 -2.655023
H	 3.175448	 1.066882	 -1.355324
H	 2.392149	 2.300340	 -2.325785
H	 -3.277823	 0.863061	 -0.908988
H	 -1.806773	 1.843019	 -0.759671
H	 -2.802853	 1.554979	 0.648059

9 5 3 2 F
