%nprocshared=4
%mem=2GB
#HF/cc-pVTZ nosymm scf=tight opt=ModRedundant

Mol

0 1
O	 -2.071633	 -1.227563	 -0.223463
C	 -1.652164	 -0.152425	 0.058082
C	 -0.327811	 0.006324	 0.778296
C	 -2.402515	 1.108629	 -0.298924
C	 0.843231	 -0.001575	 -0.211665
H	 -0.319484	 0.928173	 1.350354
H	 -0.227804	 -0.823091	 1.466705
C	 1.823830	 1.142912	 0.026670
H	 0.465214	 0.057914	 -1.229142
H	 1.361741	 -0.950567	 -0.128440
C	 2.996808	 1.131754	 -0.947580
H	 1.297909	 2.090418	 -0.051835
H	 2.198806	 1.084687	 1.044286
H	 2.655423	 1.224004	 -1.973241
H	 3.560946	 0.208711	 -0.869424
H	 3.676292	 1.952645	 -0.750499
H	 -3.240910	 0.874416	 -0.936711
H	 -1.747554	 1.818823	 -0.790984
H	 -2.760419	 1.579708	 0.610998

9 5 3 2 F
