%nprocshared=1
%mem=2GB
#HF/6-31G* nosymm scf=tight opt=ModRedundant

Mol

0 1
H	 -3.420663	 1.227371	 -1.044276
O	 -3.452007	 0.283848	 -0.965577
C	 -3.181085	 -0.079926	 0.364119
C	 -1.765924	 0.277073	 0.805136
H	 -3.327791	 -1.152017	 0.410903
H	 -3.905698	 0.375695	 1.036898
C	 -0.677594	 -0.417312	 -0.014550
H	 -1.637766	 1.358238	 0.744969
H	 -1.659588	 0.017670	 1.857098
C	 0.738335	 -0.034840	 0.421385
H	 -0.814977	 -0.178223	 -1.064632
H	 -0.802730	 -1.495410	 0.071702
C	 1.092119	 -0.560029	 1.815336
H	 1.448092	 -0.414359	 -0.309798
H	 0.839909	 1.049679	 0.411073
C	 2.468599	 -0.127700	 2.333554
H	 1.034590	 -1.647405	 1.815204
H	 0.335787	 -0.217324	 2.518423
C	 3.651326	 -0.693740	 1.545416
H	 2.559785	 -0.440893	 3.370803
H	 2.525548	 0.959004	 2.339476
H	 3.613805	 -1.779375	 1.511852
H	 4.592662	 -0.410825	 2.006592
H	 3.669099	 -0.331530	 0.522845

13 10 7 11 F
