%nprocshared=4
%mem=2GB
#HF/cc-pVTZ nosymm scf=tight opt=ModRedundant

Mol

0 1
O	 -6.557390	 -1.647978	 -2.299727
C	 -6.870940	 -1.573626	 -1.156806
C	 -5.926859	 -1.058980	 -0.089248
C	 -8.246383	 -1.991800	 -0.688287
C	 -4.553816	 -0.651743	 -0.604748
H	 -6.416428	 -0.223021	 0.405286
H	 -5.839481	 -1.832062	 0.670828
C	 -3.638620	 -0.140668	 0.504454
H	 -4.671753	 0.111073	 -1.365877
H	 -4.094365	 -1.499409	 -1.100228
C	 -2.258482	 0.271340	 0.000669
H	 -4.106885	 0.707817	 0.998493
H	 -3.526534	 -0.910132	 1.265128
C	 -2.305585	 1.289336	 -1.135201
H	 -1.720071	 -0.612521	 -0.332522
H	 -1.683513	 0.682624	 0.826734
C	 -3.572900	 2.137654	 -1.127623
H	 -1.437227	 1.939525	 -1.070796
H	 -2.226298	 0.769809	 -2.086371
H	 -3.663669	 2.697063	 -0.202494
H	 -3.574663	 2.849112	 -1.945453
H	 -4.458537	 1.518747	 -1.225834
H	 -8.749710	 -1.156825	 -0.213390
H	 -8.829559	 -2.337936	 -1.527624
H	 -8.165546	 -2.781519	 0.050531

15 11 14 18 F
