%nprocshared=4
%mem=2GB
#HF/cc-pVTZ nosymm scf=tight opt=ModRedundant

Mol

0 1
H	 -3.962728	 -0.414018	 -0.841437
C	 -2.913157	 -0.265376	 -0.672674
C	 -2.420041	 1.011994	 -0.475686
C	 -2.058229	 -1.351050	 -0.652829
H	 -3.084222	 1.854207	 -0.491222
C	 -1.071222	 1.202203	 -0.258884
H	 -2.441636	 -2.341253	 -0.805702
C	 -0.707390	 -1.162217	 -0.435865
H	 -0.672582	 2.184207	 -0.104572
C	 -0.209972	 0.116062	 -0.238155
H	 -0.042592	 -2.000857	 -0.419890
C	 1.238974	 0.374429	 0.000004
O	 1.456618	 1.300785	 0.914599
O	 2.111823	 -0.190193	 -0.569659
C	 2.787021	 1.462243	 1.365731
H	 3.148821	 0.549795	 1.815081
H	 2.757071	 2.252753	 2.097705
H	 3.435101	 1.735125	 0.546631

13 12 10 6 F
