%nprocshared=4
%mem=2GB
#HF/cc-pVTZ nosymm scf=tight opt=ModRedundant

Mol

0 1
H	 -1.835082	 1.385983	 0.000069
C	 -1.300516	 0.441153	 -0.000028
O	 -0.006604	 0.654344	 -0.000106
O	 -1.828920	 -0.612308	 0.000113
C	 0.852093	 -0.482521	 -0.000161
C	 0.578601	 -1.266876	 -1.261387
H	 0.654587	 -1.069409	 0.885566
H	 1.877875	 -0.145426	 0.045679
H	 -0.452638	 -1.594511	 -1.295617
H	 1.217721	 -2.141186	 -1.292388
H	 0.776775	 -0.665873	 -2.139733

7 5 3 2 F
