%nprocshared=4
%mem=2GB
#HF/cc-pVTZ nosymm scf=tight opt=ModRedundant

Mol

0 1
H	 -2.644180	 -0.653737	 1.272255
C	 -2.092774	 -0.380414	 0.391915
O	 -0.808934	 -0.154049	 0.752536
F	 -2.163230	 -1.351640	 -0.507133
F	 -2.627232	 0.691260	 -0.169301
C	 0.164440	 -0.187881	 -0.222502
C	 -0.294382	 0.723361	 -1.358458
Cl	 0.410346	 -1.837200	 -0.826500
H	 1.115744	 0.170176	 0.130292
F	 0.597839	 0.746924	 -2.315750
F	 -0.426518	 1.945131	 -0.898964
F	 -1.438630	 0.349348	 -1.861511

6 3 2 4 F
