%nprocshared=4
%mem=2GB
#HF/cc-pVTZ nosymm scf=tight opt=ModRedundant

Mol

0 1
H	 3.721907	 -0.933076	 -0.066039
O	 2.824271	 -1.154299	 0.131461
C	 2.076458	 -0.067370	 -0.038225
C	 0.626018	 -0.337582	 0.258241
O	 2.538288	 0.965419	 -0.381593
C	 -0.267326	 0.883135	 0.076490
H	 0.325620	 -1.161483	 -0.378003
H	 0.574537	 -0.713685	 1.275261
C	 -1.726822	 0.642622	 0.463839
H	 -0.210803	 1.217591	 -0.953497
H	 0.129920	 1.693110	 0.675679
C	 -1.970618	 0.399365	 1.952272
H	 -2.083712	 -0.220676	 -0.089875
H	 -2.332905	 1.483339	 0.133227
C	 -3.425252	 0.062096	 2.263345
H	 -1.332622	 -0.413106	 2.289741
H	 -1.682208	 1.273634	 2.527100
H	 -3.570699	 -0.107716	 3.323860
H	 -3.739938	 -0.833431	 1.738271
H	 -4.086252	 0.868718	 1.964021

12 9 6 10 F
