%nprocshared=4
%mem=2GB
#HF/cc-pVTZ nosymm scf=tight opt=ModRedundant

Mol

0 1
H	 2.342730	 0.877684	 -1.045694
C	 2.360424	 0.000000	 -0.411793
C	 1.173749	 0.000000	 0.526870
H	 3.286567	 0.000000	 0.151574
H	 2.342730	 -0.877684	 -1.045694
O	 -0.000000	 0.000000	 -0.223739
H	 1.203779	 0.876757	 1.172538
H	 1.203779	 -0.876757	 1.172538
C	 -1.173749	 0.000000	 0.526870
C	 -2.250054	 -0.737553	 -0.239204
H	 -1.488118	 1.023351	 0.727908
H	 -1.000902	 -0.478974	 1.489782
H	 -2.435746	 -0.256100	 -1.191146
H	 -3.174318	 -0.750109	 0.327101
H	 -1.948015	 -1.760014	 -0.428467

11 9 6 3 F
