%nprocshared=4
%mem=2GB
#HF/cc-pVTZ nosymm scf=tight opt=ModRedundant

Mol

0 1
H	 -2.698799	 -0.000846	 0.036018
C	 -1.694291	 -0.000483	 0.434279
O	 -0.828718	 -0.000608	 -0.655022
H	 -1.576855	 0.881100	 1.056504
H	 -1.576401	 -0.881658	 1.057001
C	 -1.356145	 -0.215020	 -1.940994
C	 -1.967163	 -1.602756	 -2.099479
C	 -2.311738	 0.891150	 -2.373982
H	 -0.482248	 -0.164443	 -2.578461
H	 -1.277733	 -2.360562	 -1.748087
H	 -2.178788	 -1.793838	 -3.145160
H	 -2.898105	 -1.705484	 -1.554157
H	 -1.861253	 1.862851	 -2.213037
H	 -2.535994	 0.790681	 -3.429628
H	 -3.251762	 0.854656	 -1.835870

6 3 2 1 F
