%nprocshared=4
%mem=2GB
#HF/cc-pVTZ nosymm scf=tight opt=ModRedundant

Mol

0 1
H	 1.014869	 4.290363	 -1.615825
N	 0.240204	 3.665653	 -1.688272
C	 0.419642	 2.506608	 -0.828112
H	 0.171665	 3.391356	 -2.646088
C	 -0.800151	 1.598731	 -0.879000
H	 0.556596	 2.865092	 0.186600
H	 1.309195	 1.926676	 -1.077774
C	 -0.678115	 0.376691	 0.025731
H	 -1.674617	 2.179813	 -0.605030
H	 -0.956822	 1.272452	 -1.905392
C	 -1.900706	 -0.535531	 -0.022488
H	 -0.517391	 0.702887	 1.050777
H	 0.204237	 -0.195064	 -0.252519
C	 -3.220513	 0.226854	 0.028039
H	 -1.865036	 -1.134397	 -0.928236
H	 -1.857948	 -1.236381	 0.806820
H	 -3.309098	 0.911849	 -0.808725
H	 -4.066838	 -0.449485	 -0.008086
H	 -3.301685	 0.809374	 0.939860

12 8 11 15 F
