%nprocshared=4
%mem=2GB
#HF/cc-pVTZ nosymm scf=tight opt=ModRedundant

Mol

0 1
O	 -2.817697	 1.304178	 0.001046
C	 -2.664672	 0.129869	 0.003507
C	 -3.797908	 -0.860100	 -0.001145
O	 -1.481217	 -0.452708	 0.001092
H	 -4.408836	 -0.679689	 -0.875387
H	 -3.443486	 -1.878443	 -0.002770
H	 -4.412123	 -0.683688	 0.871605
C	 -0.332055	 0.384012	 -0.000250
C	 0.892252	 -0.506059	 -0.000295
H	 -0.360822	 1.020205	 -0.874146
H	 -0.359817	 1.021310	 0.872861
C	 2.188199	 0.299473	 -0.001416
H	 0.857046	 -1.152781	 -0.871031
H	 0.857910	 -1.151798	 0.871202
C	 2.783200	 0.476428	 1.392781
H	 2.918319	 -0.189224	 -0.641788
H	 2.006416	 1.278043	 -0.438830
C	 4.077613	 1.282345	 1.392242
H	 2.966934	 -0.500778	 1.830236
H	 2.054546	 0.964831	 2.033571
H	 4.838200	 0.800935	 0.786769
H	 4.473064	 1.389536	 2.395554
H	 3.918801	 2.277802	 0.991371

16 12 9 13 F
