%nprocshared=4
%mem=2GB
#HF/6-31G* nosymm scf=tight opt=ModRedundant

Mol

0 1
O	 0.497789	 1.207605	 0.579859
C	 0.486307	 0.169203	 0.000779
C	 1.608116	 -0.841643	 0.000302
O	 -0.534444	 -0.243982	 -0.737429
C	 2.990107	 -0.200498	 -0.000684
H	 1.468623	 -1.481519	 -0.865924
H	 1.469683	 -1.481289	 0.866878
H	 3.129736	 0.423364	 -0.875135
H	 3.757882	 -0.966877	 -0.001197
H	 3.130964	 0.423383	 0.873533
C	 -1.668427	 0.612120	 -0.830022
C	 -2.683795	 -0.074189	 -1.719020
H	 -1.358718	 1.564497	 -1.238241
H	 -2.059912	 0.787410	 0.162754
H	 -2.274611	 -0.247523	 -2.707798
H	 -3.568304	 0.546798	 -1.817341
H	 -2.979762	 -1.028863	 -1.299189

4 2 3 6 F
