%nprocshared=1
%mem=2GB
#HF/6-31G* nosymm scf=tight 

Mol

0 1
H	 3.729471	 -0.928294	 -0.070608
O	 2.826016	 -1.159218	 0.122261
C	 2.077727	 -0.067559	 -0.035091
C	 0.624473	 -0.343591	 0.253101
O	 2.542965	 0.974826	 -0.363729
C	 -0.265902	 0.883932	 0.072916
H	 0.324016	 -1.163849	 -0.390541
H	 0.565024	 -0.726111	 1.268924
C	 -1.728698	 0.646073	 0.462102
H	 -0.209144	 1.219470	 -0.958188
H	 0.135059	 1.692851	 0.673903
C	 -1.933463	 -0.055758	 1.807637
H	 -2.191054	 0.043809	 -0.316529
H	 -2.262759	 1.595242	 0.465784
C	 -3.404041	 -0.358987	 2.093870
H	 -1.365040	 -0.983571	 1.817684
H	 -1.536559	 0.555304	 2.614144
H	 -3.524010	 -0.854222	 3.052339
H	 -3.826241	 -1.006860	 1.331088
H	 -3.994856	 0.552424	 2.116322

16 12 9 6 F
7 4 6 10 F
5 3 4 7 F
1 2 3 5 F
