%nprocshared=4
%mem=2GB
#HF/cc-pVTZ nosymm scf=tight opt=ModRedundant

Mol

0 1
H	 2.416594	 1.860810	 -1.486427
C	 2.063791	 1.101406	 -0.796774
C	 0.547285	 0.986741	 -0.871391
H	 2.370209	 1.377098	 0.204736
H	 2.558680	 0.172696	 -1.052343
N	 0.000297	 0.000045	 0.046090
H	 0.126343	 1.951885	 -0.625585
H	 0.240833	 0.776425	 -1.899877
C	 -1.359159	 0.315706	 0.454404
C	 0.126640	 -1.357654	 -0.459098
C	 -2.416729	 -0.286720	 -0.460525
H	 -1.478729	 1.390261	 0.442008
H	 -1.539692	 0.003361	 1.486761
C	 0.213861	 -2.403618	 0.643984
H	 1.029324	 -1.419418	 -1.051049
H	 -0.696489	 -1.600609	 -1.136847
H	 -2.285276	 0.073129	 -1.473515
H	 -2.371743	 -1.368476	 -0.483209
H	 -3.408658	 -0.007405	 -0.121593
H	 1.068965	 -2.208286	 1.279240
H	 -0.669909	 -2.414762	 1.269766
H	 0.322939	 -3.393583	 0.214005

3 6 9 11 F
