%nprocshared=4
%mem=2GB
#HF/cc-pVTZ nosymm scf=tight opt=ModRedundant

Mol

0 1
O	 3.420717	 -2.898598	 -0.073860
C	 2.574127	 -2.072921	 -0.023620
C	 2.763856	 -0.603632	 -0.302047
O	 1.317782	 -2.342573	 0.292610
C	 4.194649	 -0.236967	 -0.675736
H	 2.059561	 -0.338222	 -1.081200
H	 2.442017	 -0.066556	 0.584687
C	 4.755268	 -1.047868	 -1.844917
H	 4.833133	 -0.355327	 0.192826
H	 4.226231	 0.815953	 -0.927475
C	 3.830310	 -1.163005	 -3.055538
H	 4.978545	 -2.047335	 -1.483838
H	 5.706086	 -0.621818	 -2.157495
C	 3.245104	 0.178436	 -3.488962
H	 4.382301	 -1.598189	 -3.885473
H	 3.014806	 -1.847007	 -2.839602
C	 2.253624	 0.761487	 -2.486070
H	 2.752921	 0.061069	 -4.451418
H	 4.053446	 0.888791	 -3.646585
C	 1.672049	 2.100590	 -2.926921
H	 1.445215	 0.052888	 -2.327696
H	 2.744796	 0.882035	 -1.524262
H	 0.973239	 2.486273	 -2.193507
H	 1.143281	 2.006215	 -3.869581
H	 2.453249	 2.841551	 -3.060752
C	 0.824678	 -3.623490	 -0.043565
H	 -0.139967	 -3.792406	 0.411591
H	 1.544729	 -4.329140	 0.337866
H	 0.731980	 -3.727573	 -1.114467

1 2 4 26 F
