%nprocshared=4
%mem=2GB
#HF/cc-pVTZ nosymm scf=tight opt=ModRedundant

Mol

0 1
H	 -3.436473	 1.252944	 -1.023892
O	 -3.458596	 0.315260	 -0.960865
C	 -3.176635	 -0.080824	 0.355601
C	 -1.763371	 0.265266	 0.799691
H	 -3.321825	 -1.153438	 0.379502
H	 -3.895468	 0.357385	 1.043382
C	 -0.673390	 -0.426948	 -0.013392
H	 -1.631049	 1.344913	 0.747560
H	 -1.664587	 -0.001624	 1.849167
C	 0.737842	 -0.043159	 0.423759
H	 -0.806103	 -0.190518	 -1.063345
H	 -0.797221	 -1.503753	 0.074146
C	 1.007258	 -0.345206	 1.896590
H	 1.454762	 -0.568704	 -0.199714
H	 0.896046	 1.017959	 0.242494
C	 0.201000	 0.499214	 2.884897
H	 2.068041	 -0.218255	 2.100235
H	 0.788032	 -1.393289	 2.081206
C	 0.543848	 1.987026	 2.881395
H	 0.365310	 0.107623	 3.884114
H	 -0.859397	 0.373628	 2.681900
H	 1.600162	 2.143315	 3.075947
H	 -0.013379	 2.511699	 3.649157
H	 0.309637	 2.455355	 1.933018

13 10 7 11 F
