%nprocshared=4
%mem=2GB
#HF/cc-pVTZ nosymm scf=tight opt=ModRedundant

Mol

0 1
O	 -1.278239	 1.034789	 -0.784693
C	 -1.204115	 0.062668	 -0.112312
C	 -2.386398	 -0.667698	 0.460323
O	 -0.068058	 -0.518372	 0.226882
H	 -2.382952	 -1.693172	 0.114333
H	 -3.296656	 -0.175702	 0.158400
H	 -2.312537	 -0.685191	 1.540100
C	 1.169086	 0.037484	 -0.230612
C	 0.919620	 0.520255	 -1.645466
C	 2.266919	 -1.007497	 -0.144682
H	 1.413697	 0.872378	 0.408298
H	 0.128005	 1.258331	 -1.663884
H	 1.818587	 0.972094	 -2.047227
H	 0.633693	 -0.304117	 -2.287800
H	 3.201804	 -0.591973	 -0.502215
H	 2.409974	 -1.331075	 0.876827
H	 2.020285	 -1.868684	 -0.755265

11 8 4 2 F
