%nprocshared=4
%mem=2GB
#HF/cc-pVTZ nosymm scf=tight opt=ModRedundant

Mol

0 1
H	 0.372786	 -3.063731	 -4.270100
O	 1.311417	 -3.054546	 -4.296892
C	 1.799065	 -1.830421	 -3.814203
C	 1.658666	 -1.673376	 -2.307448
H	 2.845903	 -1.802073	 -4.084955
H	 1.312159	 -1.000761	 -4.323160
C	 0.214485	 -1.611354	 -1.815164
H	 2.174607	 -2.497936	 -1.824682
H	 2.177171	 -0.762872	 -2.016704
C	 0.113256	 -1.401853	 -0.304965
H	 -0.297008	 -2.528441	 -2.087797
H	 -0.304695	 -0.800443	 -2.323260
C	 -1.311389	 -1.258071	 0.233523
H	 0.607580	 -2.226000	 0.203612
H	 0.671201	 -0.507235	 -0.042621
C	 -2.047149	 0.004026	 -0.213143
H	 -1.885395	 -2.123608	 -0.085679
H	 -1.289319	 -1.295776	 1.320374
C	 -3.495197	 0.053021	 0.267656
H	 -2.029082	 0.063299	 -1.299250
H	 -1.528361	 0.886727	 0.148383
C	 -4.231616	 1.313600	 -0.173389
H	 -4.025307	 -0.820867	 -0.100964
H	 -3.515447	 -0.014628	 1.352127
H	 -4.256839	 1.393858	 -1.255129
H	 -5.255791	 1.315132	 0.181813
H	 -3.747315	 2.205126	 0.211299

10 7 4 8 F
