%nprocshared=1
%mem=2GB
#HF/6-31G* nosymm scf=tight 

Mol

0 1
O	 2.151022	 0.765797	 0.733206
C	 2.701189	 0.057885	 -0.047330
C	 2.765372	 0.275230	 -1.539788
O	 3.347903	 -1.046386	 0.304773
C	 2.044470	 1.542936	 -1.992929
H	 3.814740	 0.283401	 -1.815380
H	 2.341006	 -0.606532	 -2.013186
C	 2.010285	 1.723092	 -3.514398
H	 2.513016	 2.406608	 -1.530700
H	 1.027977	 1.516250	 -1.615499
C	 3.374876	 1.962888	 -4.166700
H	 1.364516	 2.568831	 -3.738970
H	 1.539063	 0.854361	 -3.971855
C	 3.275636	 2.245626	 -5.667103
H	 3.864169	 2.801950	 -3.674372
H	 4.019923	 1.100603	 -4.013888
C	 4.633677	 2.481639	 -6.330544
H	 2.641922	 3.116115	 -5.828006
H	 2.776816	 1.411695	 -6.158465
C	 4.525479	 2.767061	 -7.828051
H	 5.133933	 3.314007	 -5.840086
H	 5.267023	 1.610828	 -6.174526
H	 5.503823	 2.929883	 -8.269572
H	 3.926284	 3.653564	 -8.015863
H	 4.059837	 1.937476	 -8.352685
C	 4.728119	 -1.109107	 -0.004993
H	 4.882018	 -1.033965	 -1.071845
H	 5.068212	 -2.067527	 0.355250
H	 5.265056	 -0.311663	 0.488280

21 17 14 11 F
17 14 11 15 F
15 11 8 5 F
6 3 5 9 F
11 8 5 9 F
2 4 26 27 F
6 3 2 1 F
