%nprocshared=4
%mem=2GB
#HF/cc-pVTZ nosymm scf=tight opt=ModRedundant

Mol

0 1
H	 3.810490	 0.501489	 -0.819599
N	 3.021099	 -0.108446	 -0.798190
C	 1.827331	 0.595021	 -0.356020
H	 3.244318	 -0.857271	 -0.176271
C	 0.610555	 -0.317040	 -0.404245
H	 1.671239	 1.435217	 -1.024311
H	 1.926202	 1.008489	 0.648581
C	 -0.678115	 0.376691	 0.025731
H	 0.507861	 -0.702493	 -1.413347
H	 0.787141	 -1.178136	 0.237482
C	 -1.900706	 -0.535531	 -0.022488
H	 -0.852242	 1.239612	 -0.613019
H	 -0.562766	 0.764836	 1.035142
C	 -3.220513	 0.226854	 0.028039
H	 -1.865036	 -1.134397	 -0.928236
H	 -1.857948	 -1.236381	 0.806820
H	 -3.309098	 0.911849	 -0.808725
H	 -4.066838	 -0.449485	 -0.008086
H	 -3.301685	 0.809374	 0.939860

12 8 11 15 F
