%nprocshared=4
%mem=2GB
#HF/cc-pVTZ nosymm scf=tight opt=ModRedundant

Mol

0 1
H	 -3.436473	 1.252944	 -1.023892
O	 -3.458596	 0.315260	 -0.960865
C	 -3.176635	 -0.080824	 0.355601
C	 -1.763371	 0.265266	 0.799691
H	 -3.321825	 -1.153438	 0.379502
H	 -3.895468	 0.357385	 1.043382
C	 -0.673390	 -0.426948	 -0.013392
H	 -1.631049	 1.344913	 0.747560
H	 -1.664587	 -0.001624	 1.849167
C	 0.340927	 -1.170617	 0.851529
H	 -0.161279	 0.308588	 -0.623835
H	 -1.138243	 -1.125825	 -0.704759
C	 -0.314849	 -2.051170	 1.913430
H	 0.975655	 -1.774054	 0.209756
H	 0.995829	 -0.451486	 1.339187
C	 -1.065589	 -1.289715	 3.007241
H	 0.442172	 -2.682683	 2.372735
H	 -1.012285	 -2.724616	 1.422846
C	 -0.180339	 -0.440950	 3.916676
H	 -1.602706	 -2.008558	 3.618426
H	 -1.822066	 -0.657688	 2.549306
H	 0.590108	 -1.045754	 4.384330
H	 -0.766087	 0.014633	 4.706983
H	 0.310528	 0.358246	 3.374512

11 7 4 3 F
