%nprocshared=1
%mem=2GB
#HF/6-31G* nosymm scf=tight 

Mol

0 1
H	 -3.261111	 -0.295142	 1.469456
C	 -3.306842	 -0.277400	 0.373456
C	 -2.660244	 0.921717	 -0.272021
O	 -3.838538	 -1.161155	 -0.216482
C	 -1.190137	 1.088988	 0.136708
H	 -2.767302	 0.831009	 -1.346740
H	 -3.222535	 1.798584	 0.046707
C	 -0.281181	 -0.027510	 -0.383418
H	 -0.836199	 2.045488	 -0.236281
H	 -1.120851	 1.143133	 1.222076
C	 1.182442	 0.158202	 0.021714
H	 -0.355185	 -0.070396	 -1.468099
H	 -0.634390	 -0.990548	 -0.019630
C	 2.091257	 -0.951493	 -0.513620
H	 1.526487	 1.125680	 -0.335149
H	 1.254710	 0.188763	 1.108097
C	 3.553643	 -0.852844	 -0.064436
H	 2.049790	 -0.957432	 -1.601709
H	 1.695139	 -1.911829	 -0.190267
C	 4.304071	 0.365159	 -0.605683
H	 4.072631	 -1.752364	 -0.386094
H	 3.597148	 -0.850635	 1.022773
H	 4.263324	 0.397846	 -1.691288
H	 3.891969	 1.296117	 -0.230901
H	 5.349993	 0.332968	 -0.315842

6 3 5 8 F
3 5 8 12 F
12 8 11 14 F
8 11 14 18 F
20 17 14 18 F
