%nprocshared=1
%mem=2GB
#HF/6-31G* nosymm scf=tight opt=ModRedundant

Mol

0 1
O	 -1.276010	 1.052711	 -0.768302
C	 -1.204840	 0.067374	 -0.106123
C	 -2.388195	 -0.672128	 0.458071
O	 -0.067104	 -0.527208	 0.221609
H	 -2.388023	 -1.694060	 0.097175
H	 -3.300579	 -0.174919	 0.164318
H	 -2.315377	 -0.706351	 1.539059
C	 0.575016	 -1.379285	 -0.737336
C	 1.411055	 -2.357846	 0.068298
C	 1.402145	 -0.539511	 -1.698213
H	 -0.195179	 -1.905377	 -1.281885
H	 0.786777	 -2.923803	 0.750366
H	 1.913475	 -3.054447	 -0.594765
H	 2.162765	 -1.833179	 0.648222
H	 1.909136	 -1.180447	 -2.412479
H	 0.771537	 0.146906	 -2.248796
H	 2.151685	 0.028621	 -1.156527

8 4 2 1 F
