%nprocshared=4
%mem=2GB
#HF/cc-pVTZ nosymm scf=tight opt=ModRedundant

Mol

0 1
H	 -3.162190	 0.493205	 -0.000107
C	 -2.363908	 -0.234727	 0.000005
O	 -1.158738	 0.454634	 -0.000087
H	 -2.464314	 -0.863616	 -0.882153
H	 -2.464327	 -0.863359	 0.882345
C	 -0.028611	 -0.359694	 0.000037
C	 1.212847	 0.509314	 -0.000053
H	 -0.034155	 -1.007047	 -0.877198
H	 -0.034195	 -1.006836	 0.877430
C	 2.336420	 -0.080469	 -0.845092
H	 0.945503	 1.493546	 -0.368483
H	 1.544235	 0.638300	 1.024396
H	 2.033731	 -0.195526	 -1.880576
H	 3.209797	 0.559786	 -0.827576
H	 2.636665	 -1.056339	 -0.478217

11 7 6 8 F
