%nprocshared=4
%mem=2GB
#HF/cc-pVTZ nosymm scf=tight opt=ModRedundant

Mol

0 1
H	 -3.609455	 0.400156	 -1.030986
C	 -2.887242	 0.916868	 -1.677749
C	 -1.930294	 1.827737	 -0.957708
O	 -2.910183	 0.743116	 -2.846762
C	 -1.216901	 1.136108	 0.207794
H	 -1.226229	 2.225587	 -1.676973
H	 -2.520586	 2.656906	 -0.573862
C	 -0.247837	 0.040196	 -0.230469
H	 -0.678420	 1.887739	 0.774741
H	 -1.957137	 0.719296	 0.886404
C	 1.181757	 0.280428	 0.247371
H	 -0.259600	 -0.030819	 -1.314870
H	 -0.591284	 -0.923375	 0.136958
C	 2.151032	 -0.811012	 -0.202643
H	 1.515939	 1.247397	 -0.115449
H	 1.191514	 0.341223	 1.333422
C	 3.580021	 -0.656538	 0.320835
H	 2.170545	 -0.847575	 -1.289412
H	 1.766632	 -1.772905	 0.124928
C	 4.327657	 0.562694	 -0.213579
H	 4.138806	 -1.549270	 0.057813
H	 3.561991	 -0.620783	 1.406976
H	 4.355973	 0.557257	 -1.298551
H	 3.867136	 1.491650	 0.100501
H	 5.351524	 0.571613	 0.142204

3 5 8 12 F
