%nprocshared=1
%mem=2GB
#HF/6-31G* nosymm scf=tight 

Mol

0 1
O	 -1.058565	 2.355791	 1.285384
C	 -1.118979	 1.876311	 0.194108
C	 0.109202	 1.263966	 -0.456209
C	 -2.417608	 1.824104	 -0.579334
C	 0.379448	 -0.143569	 0.099626
H	 0.953535	 1.908156	 -0.236155
H	 -0.011030	 1.220438	 -1.534947
C	 1.631333	 -0.777471	 -0.511575
H	 0.476419	 -0.068834	 1.176843
H	 -0.478460	 -0.785323	 -0.095034
C	 2.915987	 -0.544314	 0.291766
H	 1.766672	 -0.399098	 -1.523130
H	 1.471257	 -1.849544	 -0.605828
C	 3.373361	 0.914346	 0.347591
H	 3.708709	 -1.142521	 -0.150311
H	 2.780642	 -0.921148	 1.303579
H	 3.506512	 1.320010	 -0.651625
H	 4.322697	 0.999599	 0.867103
H	 2.660624	 1.545032	 0.868198
H	 -2.343557	 2.455923	 -1.460576
H	 -3.232629	 2.168582	 0.041841
H	 -2.618586	 0.814354	 -0.925479

6 3 2 1 F
6 3 5 8 F
12 8 11 15 F
