%nprocshared=4
%mem=2GB
#HF/cc-pVTZ nosymm scf=tight opt=ModRedundant

Mol

0 1
H	 -3.436473	 1.252944	 -1.023892
O	 -3.458596	 0.315260	 -0.960865
C	 -3.176635	 -0.080824	 0.355601
C	 -1.763371	 0.265266	 0.799691
H	 -3.321825	 -1.153438	 0.379502
H	 -3.895468	 0.357385	 1.043382
C	 -0.673390	 -0.426948	 -0.013392
H	 -1.631049	 1.344913	 0.747560
H	 -1.664587	 -0.001624	 1.849167
C	 0.737842	 -0.043159	 0.423759
H	 -0.806103	 -0.190518	 -1.063345
H	 -0.797221	 -1.503753	 0.074146
C	 1.824000	 -0.743224	 -0.390623
H	 0.850588	 1.033777	 0.343840
H	 0.868587	 -0.286314	 1.476203
C	 1.504455	 -2.186623	 -0.783483
H	 2.758323	 -0.722651	 0.165674
H	 2.000243	 -0.171145	 -1.297422
C	 1.419530	 -3.162971	 0.387276
H	 2.271540	 -2.533087	 -1.469281
H	 0.570464	 -2.208509	 -1.339002
H	 2.338252	 -3.158265	 0.965208
H	 1.258707	 -4.174849	 0.033042
H	 0.605056	 -2.921034	 1.059364

17 13 10 7 F
