%nprocshared=4
%mem=2GB
#HF/cc-pVTZ nosymm scf=tight opt=ModRedundant

Mol

0 1
O	 2.583644	 1.794020	 -0.468346
C	 1.967112	 1.518714	 -1.445180
C	 0.698311	 0.691906	 -1.396554
C	 2.412775	 1.980168	 -2.814366
C	 0.288398	 0.247429	 0.000314
H	 -0.091632	 1.276883	 -1.862236
H	 0.842310	 -0.167329	 -2.047695
C	 -0.993089	 -0.581367	 -0.000217
H	 0.161546	 1.121650	 0.628613
H	 1.096421	 -0.323745	 0.443025
C	 -2.258482	 0.271340	 0.000669
H	 -1.002280	 -1.233920	 -0.870484
H	 -1.002061	 -1.235367	 0.868958
C	 -3.544441	 -0.550271	 -0.000253
H	 -2.250545	 0.925250	 -0.867923
H	 -2.250598	 0.923423	 0.870642
C	 -4.804551	 0.308747	 0.000556
H	 -3.553737	 -1.201524	 -0.870151
H	 -3.553831	 -1.203282	 0.868313
H	 -4.842050	 0.949078	 -0.874436
H	 -5.698404	 -0.304480	 -0.000254
H	 -4.842277	 0.947103	 0.876982
H	 1.638583	 2.582867	 -3.276349
H	 3.320263	 2.557678	 -2.728692
H	 2.583541	 1.125475	 -3.459641

9 5 8 12 F
