%nprocshared=4
%mem=2GB
#HF/cc-pVTZ nosymm scf=tight opt=ModRedundant

Mol

0 1
O	 2.858128	 1.369398	 -0.131667
C	 2.810203	 0.214456	 -0.403556
C	 1.512782	 -0.568077	 -0.390407
C	 4.053230	 -0.557609	 -0.784377
C	 0.288398	 0.247429	 0.000314
H	 1.384929	 -1.006491	 -1.377582
H	 1.645698	 -1.411023	 0.283967
C	 -0.993089	 -0.581367	 -0.000217
H	 0.186314	 1.084193	 -0.681242
H	 0.447411	 0.679412	 0.981762
C	 -2.258482	 0.271340	 0.000669
H	 -1.002280	 -1.233920	 -0.870484
H	 -1.002061	 -1.235367	 0.868958
C	 -3.544441	 -0.550271	 -0.000253
H	 -2.250545	 0.925250	 -0.867923
H	 -2.250598	 0.923423	 0.870642
C	 -4.804551	 0.308747	 0.000556
H	 -3.553737	 -1.201524	 -0.870151
H	 -3.553831	 -1.203282	 0.868313
H	 -4.842050	 0.949078	 -0.874436
H	 -5.698404	 -0.304480	 -0.000254
H	 -4.842277	 0.947103	 0.876982
H	 3.941996	 -0.979638	 -1.777134
H	 4.911573	 0.095929	 -0.761414
H	 4.204966	 -1.383731	 -0.098418

9 5 8 12 F
