%nprocshared=4
%mem=2GB
#HF/cc-pVTZ nosymm scf=tight opt=ModRedundant

Mol

0 1
O	 0.366136	 0.814489	 -0.862391
C	 0.029490	 0.077183	 0.000078
C	 -1.232113	 -0.748027	 0.000015
O	 0.734750	 -0.121407	 1.101169
C	 -2.501422	 0.088592	 -0.000052
H	 -1.188777	 -1.400384	 -0.865133
H	 -1.188857	 -1.400312	 0.865225
H	 -2.548170	 0.725504	 -0.873205
H	 -3.371613	 -0.556398	 -0.000040
H	 -2.548215	 0.725571	 0.873047
C	 1.947327	 0.592731	 1.232726
H	 2.626719	 0.341135	 0.431875
H	 2.365095	 0.297991	 2.181632
H	 1.766009	 1.657248	 1.219654

4 2 3 6 F
