%nprocshared=1
%mem=2GB
#HF/6-31G* nosymm scf=tight 

Mol

0 1
H	 -0.516344	 1.550786	 2.886715
C	 -1.161511	 0.683844	 2.697527
C	 -2.026096	 0.789316	 1.467088
O	 -1.145016	 -0.245669	 3.437449
C	 -1.220012	 1.144545	 0.209990
H	 -2.563403	 -0.144078	 1.345495
H	 -2.757938	 1.573607	 1.656697
C	 -0.252658	 0.041456	 -0.226725
H	 -1.915902	 1.354328	 -0.596864
H	 -0.669750	 2.068198	 0.382713
C	 1.180775	 0.282413	 0.250794
H	 -0.266029	 -0.034465	 -1.312038
H	 -0.597733	 -0.921000	 0.146291
C	 2.148627	 -0.814315	 -0.201312
H	 1.516199	 1.249228	 -0.115937
H	 1.192670	 0.346017	 1.338083
C	 3.580890	 -0.659131	 0.322722
H	 2.166869	 -0.852443	 -1.289387
H	 1.762857	 -1.776509	 0.128956
C	 4.324889	 0.564933	 -0.213704
H	 4.142010	 -1.551473	 0.056605
H	 3.564836	 -0.624694	 1.410140
H	 4.342616	 0.565491	 -1.300421
H	 3.866655	 1.493402	 0.110242
H	 5.353900	 0.572371	 0.132816

6 3 5 8 F
6 3 2 4 F
12 8 11 14 F
8 11 14 18 F
20 17 14 18 F
