%nprocshared=4
%mem=2GB
#HF/cc-pVTZ nosymm scf=tight opt=ModRedundant

Mol

0 1
H	 6.830139	 -7.991321	 -3.594019
O	 6.919685	 -7.395448	 -2.873778
C	 7.556133	 -6.217560	 -3.294236
C	 8.965242	 -6.059547	 -2.742755
H	 7.594067	 -6.271543	 -4.373878
H	 6.954396	 -5.348217	 -3.036155
C	 9.833190	 -7.309265	 -2.872057
H	 9.443738	 -5.227674	 -3.250876
H	 8.884588	 -5.784622	 -1.693799
C	 9.353926	 -8.456320	 -1.983571
H	 10.858818	 -7.061210	 -2.619948
H	 9.836937	 -7.639387	 -3.909502
C	 10.143192	 -9.758815	 -2.127865
H	 9.376385	 -8.136406	 -0.944640
H	 8.311787	 -8.659200	 -2.214345
C	 10.001070	 -10.454509	 -3.480475
H	 11.194359	 -9.540708	 -1.960518
H	 9.848861	 -10.445758	 -1.337528
C	 8.602665	 -11.018875	 -3.717886
H	 10.727864	 -11.261320	 -3.546008
H	 10.240429	 -9.763485	 -4.283093
C	 7.492148	 -10.020045	 -3.409691
H	 8.517666	 -11.343826	 -4.751211
H	 8.466423	 -11.907891	 -3.107844
H	 7.581728	 -9.132383	 -4.027161
H	 6.514219	 -10.451158	 -3.591086
H	 7.526402	 -9.703828	 -2.372298

4 3 2 1 F
