%nprocshared=1
%mem=2GB
#HF/6-31G* nosymm scf=tight 
prop=(read,field)

Mol

0 1
H	 2.591842	 2.014052	 0.335013
O	 3.341243	 1.666847	 -0.126420
C	 3.569748	 0.339240	 0.272702
C	 2.539934	 -0.640190	 -0.279499
H	 4.553272	 0.084741	 -0.100905
H	 3.608743	 0.269299	 1.359150
C	 1.115978	 -0.397178	 0.226626
H	 2.556363	 -0.582416	 -1.364745
H	 2.852248	 -1.647936	 -0.010659
C	 0.116085	 -1.429055	 -0.302770
H	 0.798117	 0.599564	 -0.066355
H	 1.110128	 -0.420648	 1.316467
C	 -1.309586	 -1.282401	 0.241560
H	 0.092979	 -1.380147	 -1.389932
H	 0.479612	 -2.423423	 -0.052209
C	 -2.037632	 -0.007638	 -0.193650
H	 -1.890443	 -2.142228	 -0.085730
H	 -1.285780	 -1.330797	 1.329185
C	 -3.489621	 0.043053	 0.286554
H	 -2.016900	 0.064480	 -1.280148
H	 -1.513559	 0.868773	 0.179920
C	 -4.216750	 1.317450	 -0.141068
H	 -4.025478	 -0.823213	 -0.095454
H	 -3.512892	 -0.038657	 1.371297
H	 -4.239175	 1.411730	 -1.223117
H	 -5.243221	 1.322599	 0.212441
H	 -3.726003	 2.201501	 0.256404

@grid.dat /N
