%nprocshared=4
%mem=2GB
#HF/6-31G* nosymm scf=tight opt=ModRedundant

Mol

0 1
H	 -0.606252	 3.668397	 2.831104
O	 0.076668	 3.075932	 2.550904
C	 -0.456792	 2.125384	 1.665202
C	 0.663849	 1.194467	 1.237062
H	 -1.250879	 1.556302	 2.146739
H	 -0.888885	 2.614368	 0.793117
C	 0.198102	 0.111031	 0.262842
H	 1.089369	 0.739590	 2.127425
H	 1.450855	 1.791973	 0.785304
C	 1.331804	 -0.827780	 -0.158768
H	 -0.604831	 -0.460839	 0.721575
H	 -0.226265	 0.578356	 -0.624873
C	 2.723619	 -0.410569	 0.329459
H	 1.342964	 -0.912588	 -1.244120
H	 1.116806	 -1.824343	 0.220779
C	 3.243875	 0.895854	 -0.272975
H	 3.424222	 -1.207124	 0.091250
H	 2.714788	 -0.329854	 1.414619
H	 3.251977	 0.848779	 -1.358681
H	 2.637085	 1.747371	 0.016682
H	 4.259473	 1.094070	 0.055697

4 7 10 14 F
