%nprocshared=4
%mem=2GB
#HF/cc-pVTZ nosymm scf=tight opt=ModRedundant

Mol

0 1
H	 4.505896	 0.128141	 -1.211581
C	 3.672331	 -0.468711	 -0.860801
C	 2.377480	 0.336177	 -0.873766
H	 3.598021	 -1.340257	 -1.502615
H	 3.912325	 -0.814966	 0.138962
C	 1.179013	 -0.464872	 -0.386974
H	 2.171268	 0.694654	 -1.876131
H	 2.495646	 1.217924	 -0.248357
N	 -0.036754	 0.318386	 -0.433375
H	 1.044708	 -1.332676	 -1.025760
H	 1.383929	 -0.849777	 0.616490
C	 -1.215959	 -0.382435	 0.027143
H	 0.083219	 1.158368	 0.093271
C	 -2.451944	 0.502410	 -0.038737
H	 -1.361934	 -1.249839	 -0.609629
H	 -1.097701	 -0.764364	 1.045584
C	 -3.752217	 -0.292550	 0.005776
H	 -2.407325	 1.093801	 -0.946480
H	 -2.431979	 1.206234	 0.790023
H	 -3.817783	 -0.982946	 -0.828547
H	 -4.612613	 0.364348	 -0.042306
H	 -3.830160	 -0.871666	 0.919868

15 12 14 18 F
