%nprocshared=1
%mem=2GB
#HF/6-31G* nosymm scf=tight opt=ModRedundant

Mol

0 1
H	 2.803428	 0.819406	 1.101388
O	 3.517057	 0.607535	 0.517508
C	 3.528310	 -0.774642	 0.265487
C	 2.396637	 -1.227938	 -0.650245
H	 4.482210	 -0.980652	 -0.202818
H	 3.500229	 -1.332737	 1.200645
C	 0.999068	 -1.024226	 -0.060186
H	 2.477635	 -0.689591	 -1.590984
H	 2.544137	 -2.283023	 -0.874757
C	 -0.111885	 -1.538514	 -0.980029
H	 0.845735	 0.032940	 0.137939
H	 0.933290	 -1.536125	 0.900009
C	 -1.527195	 -1.436481	 -0.399662
H	 -0.071139	 -1.001022	 -1.925698
H	 0.089111	 -2.581452	 -1.215786
C	 -2.037799	 -0.007733	 -0.193645
H	 -2.209549	 -1.955177	 -1.069858
H	 -1.567198	 -1.973840	 0.546637
C	 -3.489788	 0.042957	 0.286558
H	 -1.950391	 0.543125	 -1.129073
H	 -1.411525	 0.513360	 0.526456
C	 -4.216917	 1.317354	 -0.141063
H	 -4.025645	 -0.823308	 -0.095450
H	 -3.513059	 -0.038752	 1.371301
H	 -4.239342	 1.411634	 -1.223113
H	 -5.243387	 1.322503	 0.212445
H	 -3.726170	 2.201406	 0.256408

20 16 19 22 F
