%nprocshared=4
%mem=2GB
#HF/cc-pVTZ nosymm scf=tight opt=ModRedundant

Mol

0 1
H	 5.269878	 0.195679	 1.068175
C	 4.673900	 -0.208485	 0.258034
C	 3.190199	 -0.204714	 0.610086
H	 4.865136	 0.391893	 -0.624684
H	 5.027838	 -1.214511	 0.056939
C	 2.319208	 -0.778154	 -0.505491
H	 2.876954	 0.809861	 0.827925
H	 3.035335	 -0.782733	 1.518235
C	 2.141805	 -2.291487	 -0.433105
H	 1.344199	 -0.307363	 -0.482241
H	 2.765849	 -0.533043	 -1.464770
C	 1.248654	 -2.772212	 0.698120
H	 1.686938	 -2.653662	 -1.351631
H	 3.102735	 -2.792779	 -0.363553
C	 1.334231	 -4.236548	 1.082525
O	 0.493759	 -2.039478	 1.251752
C	 0.897480	 -5.193677	 -0.031709
H	 0.710717	 -4.371856	 1.955887
H	 2.359973	 -4.457476	 1.365790
C	 0.903931	 -6.652199	 0.418116
H	 -0.102087	 -4.924362	 -0.361755
H	 1.548709	 -5.085485	 -0.893217
C	 0.464007	 -7.615051	 -0.679385
H	 0.251866	 -6.763391	 1.279231
H	 1.902153	 -6.918864	 0.754295
H	 -0.543503	 -7.392586	 -1.014219
H	 1.119625	 -7.553140	 -1.541587
H	 0.476544	 -8.640077	 -0.327993

10 6 3 2 F
