%nprocshared=4
%mem=2GB
#HF/cc-pVTZ nosymm scf=tight opt=ModRedundant

Mol

0 1
O	 -0.427360	 -1.392182	 -0.665010
C	 0.595354	 -1.297218	 -0.076775
C	 1.246364	 -0.005813	 0.348416
O	 1.317782	 -2.342573	 0.292610
C	 0.453207	 1.232821	 -0.049003
H	 1.394842	 -0.066917	 1.419758
H	 2.239873	 0.009843	 -0.088647
C	 -0.998367	 1.217982	 0.432195
H	 0.481498	 1.345443	 -1.127236
H	 0.951413	 2.105557	 0.354893
C	 -1.923895	 2.209410	 -0.271278
H	 -1.001725	 1.436443	 1.495881
H	 -1.402821	 0.213325	 0.330406
C	 -1.801280	 2.164248	 -1.792039
H	 -2.952685	 1.998825	 0.011773
H	 -1.715450	 3.220318	 0.066583
C	 -0.461625	 2.680464	 -2.309359
H	 -2.604568	 2.748579	 -2.234334
H	 -1.946460	 1.142016	 -2.133845
C	 -0.347452	 2.633873	 -3.829415
H	 -0.315234	 3.701886	 -1.968792
H	 0.342214	 2.095655	 -1.870385
H	 0.614226	 3.006513	 -4.163033
H	 -1.116838	 3.238282	 -4.298290
H	 -0.455210	 1.619511	 -4.199099
C	 0.824678	 -3.623490	 -0.043565
H	 -0.139967	 -3.792406	 0.411591
H	 1.544729	 -4.329140	 0.337866
H	 0.731980	 -3.727573	 -1.114467

11 8 5 9 F
