%nprocshared=4
%mem=2GB
#HF/cc-pVTZ nosymm scf=tight opt=ModRedundant

Mol

0 1
H	 -1.835082	 1.385983	 0.000069
C	 -1.300516	 0.441153	 -0.000028
O	 -0.006604	 0.654344	 -0.000106
O	 -1.828920	 -0.612308	 0.000113
C	 0.611373	 0.978016	 -1.242347
C	 2.086584	 1.174861	 -0.986012
H	 0.152191	 1.872669	 -1.638209
H	 0.431602	 0.174042	 -1.941826
H	 2.251350	 1.979952	 -0.281278
H	 2.587588	 1.423137	 -1.914024
H	 2.532164	 0.272790	 -0.586392

5 3 2 4 F
