%nprocshared=4
%mem=2GB
#HF/cc-pVTZ nosymm scf=tight opt=ModRedundant

Mol

0 1
O	 0.623971	 1.347241	 -0.000777
C	 0.485107	 0.171416	 -0.000134
C	 1.606966	 -0.836201	 0.000174
O	 -0.695554	 -0.422406	 0.000602
C	 2.988788	 -0.202529	 -0.000115
H	 1.465110	 -1.474645	 -0.864821
H	 1.465209	 -1.474077	 0.865596
H	 3.131767	 0.419673	 -0.873407
H	 3.750876	 -0.972315	 0.000098
H	 3.131883	 0.420264	 0.872742
C	 -1.481241	 -0.337103	 -1.179952
C	 -2.769001	 -1.087465	 -0.932729
H	 -0.926457	 -0.761867	 -2.004656
H	 -1.665511	 0.703474	 -1.407037
H	 -2.571960	 -2.127605	 -0.705450
H	 -3.393986	 -1.042177	 -1.816797
H	 -3.315264	 -0.653901	 -0.104484

11 4 2 3 F
