%nprocshared=1
%mem=2GB
#HF/6-31G* nosymm scf=tight opt=ModRedundant

Mol

0 1
H	 -3.319232	 1.239598	 0.869493
C	 -3.321105	 0.623800	 -0.038478
C	 -2.403173	 1.101848	 -1.134600
O	 -4.013670	 -0.339328	 -0.105460
C	 -0.967277	 1.329868	 -0.642193
H	 -2.436987	 0.384413	 -1.946298
H	 -2.808857	 2.043023	 -1.503740
C	 -0.252658	 0.041456	 -0.226725
H	 -0.404944	 1.814856	 -1.434565
H	 -0.978360	 2.029083	 0.192512
C	 1.180775	 0.282413	 0.250794
H	 -0.244059	 -0.648017	 -1.068390
H	 -0.814790	 -0.454363	 0.562394
C	 2.148627	 -0.814315	 -0.201312
H	 1.516199	 1.249228	 -0.115937
H	 1.192670	 0.346017	 1.338083
C	 3.580890	 -0.659131	 0.322722
H	 2.166869	 -0.852443	 -1.289387
H	 1.762857	 -1.776509	 0.128956
C	 4.324889	 0.564933	 -0.213704
H	 4.142010	 -1.551473	 0.056605
H	 3.564836	 -0.624694	 1.410140
H	 4.342616	 0.565491	 -1.300421
H	 3.866655	 1.493402	 0.110242
H	 5.353900	 0.572371	 0.132816

12 8 11 14 F
