%nprocshared=4
%mem=2GB
#HF/cc-pVTZ nosymm scf=tight opt=ModRedundant

Mol

0 1
H	 -3.262855	 1.763689	 0.640529
C	 -2.848091	 0.785116	 0.769650
C	 -1.748888	 0.461586	 0.133703
H	 -3.345460	 0.093498	 1.420869
O	 -1.189946	 -0.765863	 0.237511
H	 -1.237660	 1.149615	 -0.514672
C	 0.026572	 -0.995256	 -0.379403
C	 1.057223	 0.049888	 -0.004615
H	 -0.054361	 -1.010670	 -1.459674
H	 0.397526	 -1.952058	 -0.044198
F	 2.203233	 -0.234060	 -0.590375
F	 0.698147	 1.254887	 -0.392621
F	 1.266440	 0.094219	 1.288722

3 5 7 9 F
