%nprocshared=4
%mem=2GB
#HF/cc-pVTZ nosymm scf=tight opt=ModRedundant

Mol

0 1
O	 1.658222	 1.623019	 -0.484092
C	 1.154999	 1.072067	 -1.402927
C	 -0.154873	 0.327365	 -1.366936
O	 1.693218	 1.039331	 -2.611093
C	 -0.824290	 0.329213	 -0.000115
H	 -0.797392	 0.771974	 -2.119892
H	 0.041776	 -0.684150	 -1.706951
C	 -2.146151	 -0.432825	 -0.000068
H	 -0.989485	 1.353130	 0.315446
H	 -0.149221	 -0.104459	 0.728926
C	 -3.366283	 0.483552	 0.000557
H	 -2.189286	 -1.084450	 -0.869996
H	 -2.188867	 -1.085083	 0.869399
C	 -4.687436	 -0.278003	 0.000108
H	 -3.325150	 1.134819	 -0.867957
H	 -3.325087	 1.133730	 0.869885
H	 -4.773783	 -0.912098	 -0.876078
H	 -5.531922	 0.401392	 0.000363
H	 -4.773901	 -0.912898	 0.875703
C	 2.929128	 1.701275	 -2.789088
H	 2.833134	 2.753986	 -2.568188
H	 3.195528	 1.560974	 -3.824073
H	 3.686117	 1.274338	 -2.148068

9 5 8 12 F
