%nprocshared=4
%mem=2GB
#HF/cc-pVTZ nosymm scf=tight opt=ModRedundant

Mol

0 1
H	 2.867672	 -0.456275	 0.875795
C	 2.403497	 -0.020426	 0.000000
N	 0.989899	 -0.304564	 0.000000
H	 2.867672	 -0.456275	 -0.875795
H	 2.620366	 1.051270	 0.000000
C	 0.447371	 -0.413614	 -1.338409
C	 0.233224	 0.651779	 0.781293
H	 0.568600	 0.520172	 -1.896165
H	 0.979999	 -1.188827	 -1.877001
C	 -1.026234	 -0.766820	 -1.275368
H	 0.608724	 0.658280	 1.797995
H	 0.338346	 1.665698	 0.382970
C	 -1.234880	 0.271198	 0.789870
H	 -1.460608	 -0.760016	 -2.265267
H	 -1.143614	 -1.763168	 -0.853927
O	 -1.735391	 0.161529	 -0.509594
H	 -1.820070	 1.028322	 1.292804
H	 -1.363056	 -0.671435	 1.318181

6 3 2 5 F
