%nprocshared=4
%mem=2GB
#HF/cc-pVTZ nosymm scf=tight opt=ModRedundant

Mol

0 1
O	 -0.406316	 0.104456	 2.438929
C	 -0.846966	 0.612872	 1.465048
C	 -1.705041	 1.846597	 1.455975
O	 -0.637375	 0.157174	 0.243149
H	 -2.660144	 1.621661	 0.998917
H	 -1.849763	 2.193395	 2.466135
H	 -1.229463	 2.616125	 0.861651
C	 0.162530	 -1.009518	 0.097799
C	 1.587210	 -0.664190	 0.477086
H	 0.096803	 -1.356267	 -0.924704
H	 -0.233803	 -1.785900	 0.736810
C	 1.792243	 -0.399469	 1.966263
H	 1.867942	 0.218476	 -0.091093
H	 2.242163	 -1.466231	 0.150585
C	 3.231893	 -0.027335	 2.304698
H	 1.128780	 0.401970	 2.280289
H	 1.502760	 -1.278233	 2.530900
H	 3.348392	 0.158963	 3.365880
H	 3.541612	 0.868140	 1.775933
H	 3.916023	 -0.824028	 2.032188

12 9 8 10 F
