%nprocshared=4
%mem=2GB
#HF/cc-pVTZ nosymm scf=tight opt=ModRedundant

Mol

0 1
O	 0.557630	 0.697205	 -1.940004
C	 0.781622	 1.719742	 -1.387478
C	 1.266627	 1.859663	 0.032675
O	 0.630629	 2.901797	 -1.962250
C	 2.419351	 0.929243	 0.381775
H	 1.543152	 2.899075	 0.176226
H	 0.413563	 1.689113	 0.681239
C	 3.582920	 1.053857	 -0.597304
H	 2.060370	 -0.093555	 0.398864
H	 2.760194	 1.144677	 1.388107
C	 3.298184	 0.410969	 -1.951590
H	 3.822605	 2.104694	 -0.744075
H	 4.471056	 0.598071	 -0.165204
C	 4.460882	 0.535911	 -2.930331
H	 2.411861	 0.866116	 -2.384524
H	 3.060258	 -0.639012	 -1.806363
H	 4.700665	 1.576400	 -3.123000
H	 4.225865	 0.069995	 -3.880291
H	 5.354084	 0.059029	 -2.540449
C	 1.774850	 3.725117	 -2.063383
H	 2.168391	 3.953019	 -1.083894
H	 1.449161	 4.628457	 -2.553025
H	 2.542901	 3.240436	 -2.647673

1 2 4 20 F
