%nprocshared=4
%mem=2GB
#HF/cc-pVTZ nosymm scf=tight opt=ModRedundant

Mol

0 1
H	 -3.498985	 1.253143	 -1.010443
O	 -3.458596	 0.315260	 -0.960865
C	 -3.176635	 -0.080824	 0.355601
C	 -1.763371	 0.265266	 0.799691
H	 -3.321825	 -1.153438	 0.379502
H	 -3.895468	 0.357385	 1.043382
C	 -0.739968	 -0.829389	 0.512116
H	 -1.457351	 1.191019	 0.314719
H	 -1.786817	 0.475536	 1.866286
C	 -0.958026	 -2.089859	 1.344964
H	 0.257084	 -0.442593	 0.691528
H	 -0.782175	 -1.083933	 -0.544261
C	 -2.410679	 -2.561908	 1.340605
H	 -0.311310	 -2.876714	 0.968791
H	 -0.646637	 -1.903340	 2.370686
C	 -3.394294	 -1.624605	 2.043324
H	 -2.468524	 -3.547693	 1.796380
H	 -2.731437	 -2.686837	 0.310010
C	 -3.190242	 -1.499216	 3.551231
H	 -4.401991	 -1.983854	 1.858226
H	 -3.336895	 -0.638828	 1.589045
H	 -3.236531	 -2.471104	 4.032237
H	 -3.959927	 -0.876446	 3.992802
H	 -2.233062	 -1.054683	 3.795778

7 4 3 2 F
