%nprocshared=1
%mem=2GB
#HF/6-31G* nosymm scf=tight 

Mol

0 1
H	 3.893188	 0.355400	 -0.101367
N	 3.092854	 -0.246221	 -0.068770
C	 1.865559	 0.531981	 0.018834
H	 3.199514	 -0.826043	 0.741946
C	 0.645745	 -0.382037	 -0.029944
H	 1.841966	 1.207024	 -0.831236
H	 1.815756	 1.155410	 0.915079
C	 -0.679275	 0.379305	 0.025956
H	 0.698998	 -0.976915	 -0.937203
H	 0.693479	 -1.083846	 0.802235
C	 -1.506635	 0.058353	 1.272086
H	 -1.266162	 0.147687	 -0.861606
H	 -0.485925	 1.450422	 -0.008268
C	 -2.831628	 0.818246	 1.321762
H	 -1.702162	 -1.011092	 1.307715
H	 -0.923680	 0.291260	 2.160666
H	 -3.452565	 0.580124	 0.462663
H	 -3.395058	 0.569271	 2.215720
H	 -2.668108	 1.892328	 1.322430

6 3 5 9 F
12 8 11 15 F
1 2 3 6 F
