%nprocshared=4
%mem=2GB
#HF/cc-pVTZ nosymm scf=tight 
prop=(read,field)

Mol

0 1
H	 -2.650137	 0.008579	 0.000002
C	 -1.665113	 -0.439414	 -0.000001
C	 -0.600880	 0.658675	 -0.000002
H	 -1.573422	 -1.066333	 -0.876728
H	 -1.573418	 -1.066335	 0.876725
C	 0.763477	 0.112207	 -0.000006
H	 -0.701673	 1.291732	 -0.871789
H	 -0.701669	 1.291731	 0.871787
N	 1.806077	 -0.317201	 0.000007

@grid.dat /N
