%nprocshared=4
%mem=2GB
#HF/cc-pVTZ nosymm scf=tight opt=ModRedundant

Mol

0 1
H	 -2.644180	 -0.653737	 1.272255
C	 -2.092774	 -0.380414	 0.391915
O	 -0.808934	 -0.154049	 0.752536
F	 -2.163230	 -1.351640	 -0.507133
F	 -2.627232	 0.691260	 -0.169301
C	 -0.290091	 -0.859075	 1.816980
C	 0.495367	 0.126508	 2.678931
Cl	 0.773549	 -2.165929	 1.263500
H	 -1.054133	 -1.304506	 2.429743
F	 1.004767	 -0.480622	 3.720529
F	 -0.319979	 1.058263	 3.112933
F	 1.460419	 0.703162	 2.016815

6 3 2 4 F
