%nprocshared=4
%mem=2GB
#HF/cc-pVTZ nosymm scf=tight opt=ModRedundant

Mol

0 1
H	 -3.436473	 1.252944	 -1.023892
O	 -3.458596	 0.315260	 -0.960865
C	 -3.176635	 -0.080824	 0.355601
C	 -1.763371	 0.265266	 0.799691
H	 -3.321825	 -1.153438	 0.379502
H	 -3.895468	 0.357385	 1.043382
C	 -0.673390	 -0.426948	 -0.013392
H	 -1.631049	 1.344913	 0.747560
H	 -1.664587	 -0.001624	 1.849167
C	 -0.785058	 -1.949172	 0.004905
H	 0.298282	 -0.128735	 0.364543
H	 -0.721505	 -0.074619	 -1.041038
C	 -2.201313	 -2.445286	 -0.279948
H	 -0.094039	 -2.361720	 -0.723921
H	 -0.464455	 -2.323177	 0.975054
C	 -3.231443	 -2.106001	 0.798740
H	 -2.180626	 -3.522514	 -0.428279
H	 -2.535631	 -2.017604	 -1.221192
C	 -3.002880	 -2.798603	 2.140084
H	 -4.215765	 -2.378771	 0.430660
H	 -3.252542	 -1.029618	 0.948318
H	 -2.971064	 -3.876941	 2.020705
H	 -3.803730	 -2.567692	 2.833310
H	 -2.073512	 -2.489802	 2.603250

11 7 4 3 F
