%nprocshared=4
%mem=2GB
#HF/cc-pVTZ nosymm scf=tight opt=ModRedundant

Mol

0 1
O	 2.615755	 -3.222195	 1.844167
C	 2.216619	 -2.272511	 1.261268
C	 2.645026	 -0.848239	 1.506714
O	 1.317782	 -2.342573	 0.292610
C	 3.684308	 -0.709433	 2.612101
H	 3.003597	 -0.460781	 0.560746
H	 1.749226	 -0.281077	 1.739523
C	 4.924541	 -1.580488	 2.407344
H	 3.225264	 -0.942676	 3.566536
H	 3.986658	 0.328797	 2.672704
C	 5.529638	 -1.526234	 1.005445
H	 4.652822	 -2.608566	 2.627320
H	 5.682963	 -1.307191	 3.137675
C	 5.712018	 -0.101493	 0.489074
H	 6.493172	 -2.030622	 1.013570
H	 4.904426	 -2.074215	 0.306616
C	 4.395016	 0.616405	 0.208178
H	 6.308579	 -0.122804	 -0.419772
H	 6.284495	 0.472693	 1.213951
C	 4.585488	 2.038378	 -0.309018
H	 3.821962	 0.043950	 -0.516132
H	 3.798736	 0.641028	 1.116308
H	 3.632421	 2.519000	 -0.497832
H	 5.148588	 2.045295	 -1.236368
H	 5.126046	 2.646730	 0.408556
C	 0.824678	 -3.623490	 -0.043565
H	 -0.139967	 -3.792406	 0.411591
H	 1.544729	 -4.329140	 0.337866
H	 0.731980	 -3.727573	 -1.114467

2 4 26 27 F
