%nprocshared=4
%mem=2GB
#HF/6-31G* nosymm scf=tight opt=ModRedundant

Mol

0 1
O	 1.846825	 1.296220	 0.000415
C	 1.705091	 0.115954	 0.001797
C	 0.381791	 -0.609817	 0.001258
O	 2.721346	 -0.737485	 -0.000216
C	 -0.823008	 0.326187	 0.001381
H	 0.371250	 -1.265087	 -0.865474
H	 0.370908	 -1.265746	 0.867490
C	 -1.799948	 0.014593	 1.136088
H	 -1.332331	 0.253549	 -0.954392
H	 -0.478597	 1.352415	 0.082288
C	 -3.015098	 0.943602	 1.150662
H	 -2.138887	 -1.016889	 1.051470
H	 -1.282664	 0.086771	 2.091645
C	 -3.990254	 0.632561	 2.285375
H	 -3.534423	 0.870746	 0.197701
H	 -2.678188	 1.974302	 1.236028
H	 -4.372025	 -0.381558	 2.207739
H	 -4.840225	 1.307643	 2.269168
H	 -3.508806	 0.730333	 3.254375
C	 4.024888	 -0.184556	 -0.001949
H	 4.179030	 0.422472	 -0.882452
H	 4.701782	 -1.024608	 -0.003642
H	 4.181981	 0.421185	 0.878906

9 5 3 6 F
