%nprocshared=1
%mem=2GB
#HF/6-31G* nosymm scf=tight opt=ModRedundant

Mol

0 1
H	 1.129437	 3.918396	 2.290376
N	 0.301957	 3.358919	 2.214174
C	 0.441717	 2.372921	 1.152194
H	 -0.453930	 3.986041	 2.013716
C	 -0.779100	 1.460267	 1.102990
H	 1.324769	 1.779158	 1.367884
H	 0.598847	 2.821490	 0.168072
C	 -0.679275	 0.379305	 0.025956
H	 -0.906755	 1.005217	 2.080982
H	 -1.668264	 2.064642	 0.925632
C	 -1.903357	 -0.536963	 -0.023547
H	 0.210789	 -0.223204	 0.200936
H	 -0.543428	 0.846775	 -0.948141
C	 -3.225172	 0.228290	 0.028445
H	 -1.867824	 -1.134999	 -0.931459
H	 -1.860449	 -1.239604	 0.805977
H	 -3.313397	 0.915643	 -0.808262
H	 -4.073500	 -0.448134	 -0.008893
H	 -3.306061	 0.809945	 0.942516

12 8 11 15 F
