%nprocshared=1
%mem=2GB
#HF/6-31G* nosymm scf=tight 

Mol

0 1
H	 4.447243	 0.207376	 1.206820
C	 3.661373	 -0.379294	 0.742087
C	 2.350429	 0.403781	 0.685674
H	 3.998902	 -0.651895	 -0.253899
H	 3.550657	 -1.295366	 1.315499
C	 1.217350	 -0.386724	 0.039429
H	 2.488544	 1.326491	 0.130769
H	 2.058311	 0.689742	 1.694775
N	 0.000003	 0.397874	 -0.023260
H	 1.498102	 -0.649890	 -0.976880
H	 1.077254	 -1.331170	 0.575873
C	 -1.217365	 -0.386708	 0.039277
H	 -0.000031	 1.072115	 0.718656
C	 -2.452633	 0.504241	 -0.042481
H	 -1.215291	 -1.074557	 -0.802042
H	 -1.269739	 -1.003477	 0.942735
C	 -3.758029	 -0.289423	 -0.010781
H	 -2.394220	 1.093569	 -0.952170
H	 -2.440793	 1.210787	 0.785871
H	 -3.816659	 -0.981993	 -0.845726
H	 -4.617837	 0.370165	 -0.069296
H	 -3.847478	 -0.867502	 0.904682

15 12 14 18 F
