%nprocshared=1
%mem=2GB
#HF/6-31G* nosymm scf=tight 

Mol

0 1
H	 -1.976036	 -0.054818	 3.637515
C	 -2.474169	 -0.537793	 2.787679
C	 -2.534118	 0.290396	 1.529458
O	 -2.918502	 -1.634001	 2.900138
C	 -1.157987	 0.827389	 1.112134
H	 -2.982165	 -0.309672	 0.745953
H	 -3.199974	 1.128912	 1.729907
C	 -0.182338	 -0.268082	 0.674698
H	 -1.296525	 1.533029	 0.298400
H	 -0.727125	 1.395508	 1.935150
C	 1.180775	 0.282413	 0.250794
H	 -0.620781	 -0.826701	 -0.149656
H	 -0.044303	 -0.983659	 1.483052
C	 2.148627	 -0.814315	 -0.201312
H	 1.035747	 1.003886	 -0.549316
H	 1.622362	 0.830859	 1.081812
C	 3.580890	 -0.659131	 0.322722
H	 2.166869	 -0.852443	 -1.289387
H	 1.762857	 -1.776509	 0.128956
C	 4.324889	 0.564933	 -0.213704
H	 4.142010	 -1.551473	 0.056605
H	 3.564836	 -0.624694	 1.410140
H	 4.342616	 0.565491	 -1.300421
H	 3.866655	 1.493402	 0.110242
H	 5.353900	 0.572371	 0.132816

6 3 5 8 F
6 3 2 4 F
3 5 8 12 F
12 8 11 14 F
20 17 14 18 F
