%nprocshared=4
%mem=2GB
#HF/6-31G* nosymm scf=tight opt=ModRedundant

Mol

0 1
H	 -3.420663	 1.227371	 -1.044276
O	 -3.452007	 0.283848	 -0.965577
C	 -3.181085	 -0.079926	 0.364119
C	 -1.765924	 0.277073	 0.805136
H	 -3.327791	 -1.152017	 0.410903
H	 -3.905698	 0.375695	 1.036898
C	 -0.677594	 -0.417312	 -0.014550
H	 -1.637766	 1.358238	 0.744969
H	 -1.659588	 0.017670	 1.857098
C	 0.738335	 -0.034840	 0.421385
H	 -0.814977	 -0.178223	 -1.064632
H	 -0.802730	 -1.495410	 0.071702
C	 1.822265	 -0.738362	 -0.399735
H	 0.853533	 1.043532	 0.342250
H	 0.871597	 -0.279636	 1.474438
C	 1.681371	 -0.579644	 -1.917995
H	 1.831871	 -1.798089	 -0.149573
H	 2.793043	 -0.348347	 -0.100914
C	 0.441752	 -1.248504	 -2.514968
H	 2.565491	 -0.999687	 -2.391477
H	 1.677199	 0.478968	 -2.170036
H	 0.412546	 -2.306528	 -2.268252
H	 0.440868	 -1.162555	 -3.597303
H	 -0.476905	 -0.798873	 -2.152939

17 13 10 7 F
