%nprocshared=4
%mem=2GB
#HF/cc-pVTZ nosymm scf=tight opt=ModRedundant

Mol

0 1
O	 -2.081319	 -0.951530	 -0.502732
N	 -1.613558	 0.006676	 0.014756
C	 -0.329345	 -0.171618	 0.743966
O	 -2.068523	 1.100482	 -0.024385
C	 0.835904	 0.041968	 -0.213982
H	 -0.346048	 -1.174374	 1.137184
H	 -0.333613	 0.555559	 1.538590
C	 2.177039	 -0.130175	 0.494460
H	 0.754456	 -0.665923	 -1.030569
H	 0.765464	 1.037260	 -0.637266
C	 3.026235	 -1.233194	 -0.127388
H	 2.005199	 -0.354006	 1.543177
H	 2.724093	 0.807501	 0.464422
H	 2.518439	 -2.190132	 -0.081456
H	 3.240735	 -1.021044	 -1.168876
H	 3.971234	 -1.333678	 0.392268

11 8 5 9 F
