%nprocshared=4
%mem=2GB
#HF/6-31G* nosymm scf=tight opt=ModRedundant

Mol

0 1
O	 -2.042549	 -1.228399	 -0.269030
C	 -1.653912	 -0.146171	 0.050137
C	 -0.332303	 0.024011	 0.778412
C	 -2.438579	 1.106236	 -0.272369
C	 0.845713	 -0.001731	 -0.208243
H	 -0.323783	 0.953829	 1.340327
H	 -0.235459	 -0.796807	 1.480410
C	 2.175924	 0.361581	 0.453251
H	 0.653541	 0.687297	 -1.028849
H	 0.910595	 -0.994210	 -0.644037
C	 3.350547	 0.328053	 -0.523654
H	 2.101064	 1.352635	 0.895555
H	 2.367351	 -0.326556	 1.273246
H	 3.204087	 1.031551	 -1.338327
H	 3.470586	 -0.660115	 -0.957887
H	 4.280230	 0.586609	 -0.026800
H	 -3.277823	 0.863061	 -0.908988
H	 -1.806773	 1.843019	 -0.759671
H	 -2.802853	 1.554979	 0.648059

9 5 3 2 F
