%nprocshared=1
%mem=2GB
#HF/6-31G* nosymm scf=tight opt=ModRedundant

Mol

0 1
H	 -3.161837	 0.500524	 -0.000234
C	 -2.367097	 -0.232926	 -0.000000
O	 -1.158440	 0.455814	 -0.000122
H	 -2.468853	 -0.861886	 -0.882833
H	 -2.468942	 -0.861421	 0.883154
C	 -0.029776	 -0.365156	 0.000148
C	 -0.188566	 -1.416449	 1.084689
H	 0.867103	 0.229753	 0.177885
H	 0.088394	 -0.841177	 -0.974197
C	 1.007137	 -2.364972	 1.158706
H	 -0.326086	 -0.911618	 2.035949
H	 -1.099299	 -1.975124	 0.891951
H	 1.926401	 -1.827893	 1.375328
H	 0.867020	 -3.104399	 1.940025
H	 1.148179	 -2.898531	 0.222850

8 6 3 2 F
