%nprocshared=4
%mem=2GB
#HF/6-31G* nosymm scf=tight opt=ModRedundant

Mol

0 1
O	 0.074228	 1.262779	 -0.000085
C	 0.028650	 0.075053	 -0.000277
C	 -1.233602	 -0.752807	 0.000328
O	 1.109162	 -0.694619	 -0.000298
C	 -2.501530	 0.091881	 0.000126
H	 -1.193807	 -1.406641	 -0.865785
H	 -1.193516	 -1.405779	 0.867015
H	 -2.545121	 0.729328	 -0.874513
H	 -3.377167	 -0.548497	 0.000561
H	 -2.544818	 0.730135	 0.874258
C	 0.911551	 -2.079642	 0.219363
H	 0.456750	 -2.249951	 1.184538
H	 1.892674	 -2.526869	 0.184018
H	 0.280214	 -2.500069	 -0.550134

11 4 2 3 F
