%nprocshared=1
%mem=2GB
#HF/6-31G* nosymm scf=tight opt=ModRedundant

Mol

0 1
O	 -2.439739	 -0.935931	 -0.423848
C	 -1.921153	 0.064240	 -0.045697
C	 -2.624470	 1.379923	 0.150949
O	 -0.632575	 0.154573	 0.251549
H	 -2.168117	 2.136577	 -0.476876
H	 -3.669540	 1.273223	 -0.098610
H	 -2.519365	 1.700893	 1.180846
C	 0.160891	 -1.019931	 0.106212
C	 1.589627	 -0.672828	 0.480843
H	 0.089836	 -1.367806	 -0.916050
H	 -0.238459	 -1.792301	 0.749618
C	 2.141005	 -1.489854	 1.650822
H	 1.613750	 0.385765	 0.731307
H	 2.223028	 -0.802219	 -0.392838
C	 3.571044	 -1.096167	 2.018244
H	 1.495445	 -1.356667	 2.516624
H	 2.107459	 -2.544813	 1.399233
H	 3.939251	 -1.689760	 2.848968
H	 3.629977	 -0.050553	 2.307201
H	 4.246199	 -1.245694	 1.180457

12 9 8 10 F
