%nprocshared=1
%mem=2GB
#HF/6-31G* nosymm scf=tight 

Mol

0 1
O	 1.846825	 1.296220	 0.000415
C	 1.705091	 0.115954	 0.001797
C	 0.381791	 -0.609817	 0.001258
O	 2.721346	 -0.737485	 -0.000216
C	 -0.823008	 0.326187	 0.001381
H	 0.371250	 -1.265087	 -0.865474
H	 0.370908	 -1.265746	 0.867490
C	 -1.081396	 0.939461	 1.378404
H	 -1.700443	 -0.220357	 -0.329658
H	 -0.664546	 1.113174	 -0.729270
C	 -2.287152	 1.880561	 1.396912
H	 -1.235957	 0.145200	 2.107277
H	 -0.197093	 1.484140	 1.705841
C	 -2.544089	 2.493961	 2.772767
H	 -3.171885	 1.337280	 1.072513
H	 -2.133862	 2.675018	 0.669948
H	 -2.735447	 1.724828	 3.515754
H	 -3.404270	 3.155902	 2.753462
H	 -1.688917	 3.072863	 3.110204
C	 4.024888	 -0.184556	 -0.001949
H	 4.179030	 0.422472	 -0.882452
H	 4.701782	 -1.024608	 -0.003642
H	 4.181981	 0.421185	 0.878906

15 11 8 12 F
9 5 8 12 F
1 2 3 6 F
1 2 4 20 F
