%nprocshared=4
%mem=2GB
#HF/cc-pVTZ nosymm scf=tight opt=ModRedundant

Mol

0 1
O	 -0.406316	 0.104456	 2.438929
C	 -0.846966	 0.612872	 1.465048
C	 -1.705041	 1.846597	 1.455975
O	 -0.637375	 0.157174	 0.243149
H	 -2.660144	 1.621661	 0.998917
H	 -1.849763	 2.193395	 2.466135
H	 -1.229463	 2.616125	 0.861651
C	 0.162530	 -1.009518	 0.097799
C	 1.587210	 -0.664190	 0.477086
H	 0.096803	 -1.356267	 -0.924704
H	 -0.233803	 -1.785900	 0.736810
C	 2.444066	 -0.174244	 -0.687180
H	 2.033028	 -1.557580	 0.905846
H	 1.570061	 0.083811	 1.263876
C	 3.878350	 0.135874	 -0.272121
H	 2.449567	 -0.929948	 -1.468192
H	 1.992059	 0.711450	 -1.118549
H	 4.464750	 0.477185	 -1.117122
H	 4.368075	 -0.741628	 0.137208
H	 3.907038	 0.912389	 0.484991

12 9 8 10 F
