%nprocshared=4
%mem=2GB
#HF/6-31G* nosymm scf=tight opt=ModRedundant

Mol

0 1
H	 3.729471	 -0.928294	 -0.070608
O	 2.826016	 -1.159218	 0.122261
C	 2.077727	 -0.067559	 -0.035091
C	 0.624473	 -0.343591	 0.253101
O	 2.542965	 0.974826	 -0.363729
C	 -0.265902	 0.883932	 0.072916
H	 0.324016	 -1.163849	 -0.390541
H	 0.565024	 -0.726111	 1.268924
C	 -1.728698	 0.646073	 0.462102
H	 -0.209144	 1.219470	 -0.958188
H	 0.135059	 1.692851	 0.673903
C	 -2.243881	 -0.772493	 0.202848
H	 -2.344617	 1.345938	 -0.097892
H	 -1.870169	 0.894400	 1.513043
C	 -3.733357	 -0.921865	 0.512088
H	 -2.063260	 -1.034429	 -0.837733
H	 -1.686668	 -1.489416	 0.800274
H	 -4.074591	 -1.934753	 0.322534
H	 -4.329807	 -0.251372	 -0.099887
H	 -3.942385	 -0.691861	 1.553069

12 9 6 10 F
