%nprocshared=4
%mem=2GB
#HF/6-31G* nosymm scf=tight opt=ModRedundant

Mol

0 1
H	 -3.420663	 1.227371	 -1.044276
O	 -3.452007	 0.283848	 -0.965577
C	 -3.181085	 -0.079926	 0.364119
C	 -1.765924	 0.277073	 0.805136
H	 -3.327791	 -1.152017	 0.410903
H	 -3.905698	 0.375695	 1.036898
C	 -0.677594	 -0.417312	 -0.014550
H	 -1.637766	 1.358238	 0.744969
H	 -1.659588	 0.017670	 1.857098
C	 0.738335	 -0.034840	 0.421385
H	 -0.814977	 -0.178223	 -1.064632
H	 -0.802730	 -1.495410	 0.071702
C	 1.822265	 -0.738362	 -0.399735
H	 0.853533	 1.043532	 0.342250
H	 0.871597	 -0.279636	 1.474438
C	 1.744465	 -2.269355	 -0.386991
H	 2.802716	 -0.426391	 -0.043245
H	 1.753165	 -0.398193	 -1.430912
C	 2.010131	 -2.908245	 0.977430
H	 2.468671	 -2.656723	 -1.099564
H	 0.767005	 -2.582766	 -0.748306
H	 2.976417	 -2.602421	 1.369735
H	 2.013166	 -3.991353	 0.901896
H	 1.255343	 -2.635947	 1.707713

17 13 10 7 F
