%nprocshared=4
%mem=2GB
#HF/cc-pVTZ nosymm scf=tight opt=ModRedundant

Mol

0 1
O	 -0.972940	 -1.355488	 0.365080
C	 -0.661730	 -0.217771	 0.156594
C	 -1.718996	 0.867105	 0.148519
N	 0.622280	 0.144970	 -0.099307
H	 -1.754548	 1.376254	 -0.806389
H	 -2.668266	 0.393286	 0.335263
H	 -1.531607	 1.606395	 0.917486
C	 1.664396	 -0.854993	 0.000772
C	 1.081428	 1.512970	 -0.138219
H	 2.462727	 -0.615153	 -0.690869
H	 1.261798	 -1.821849	 -0.240651
H	 2.081615	 -0.891605	 1.003877
H	 1.887403	 1.597454	 -0.855786
H	 0.300265	 2.186888	 -0.445650
H	 1.459443	 1.841969	 0.827135

2 4 8 10 F
