%nprocshared=1
%mem=2GB
#HF/6-31G* nosymm scf=tight opt=ModRedundant

Mol

0 1
O	 1.214711	 1.306902	 -0.000018
C	 1.122059	 0.121804	 -0.000188
C	 -0.170150	 -0.657997	 -0.000612
O	 2.172624	 -0.688929	 0.000216
C	 -1.412532	 0.227344	 -0.000452
H	 -0.153702	 -1.313099	 -0.867402
H	 -0.153924	 -1.313811	 0.865644
C	 -1.435176	 1.197164	 1.182047
H	 -2.298955	 -0.399020	 0.020208
H	 -1.457242	 0.782257	 -0.932426
C	 -2.675999	 2.088965	 1.189242
H	 -1.389384	 0.636038	 2.113238
H	 -0.543599	 1.820527	 1.157981
H	 -3.584011	 1.495869	 1.247598
H	 -2.667553	 2.766443	 2.037315
H	 -2.731850	 2.689258	 0.285821
C	 3.452279	 -0.082609	 0.000533
H	 3.583069	 0.529321	 -0.880332
H	 4.163299	 -0.894027	 0.001117
H	 3.582335	 0.529955	 0.881077

9 5 3 6 F
