%nprocshared=1
%mem=2GB
#HF/6-31G* nosymm scf=tight opt=ModRedundant

Mol

0 1
O	 2.862325	 1.357334	 0.000267
C	 2.843464	 0.164689	 -0.000222
C	 1.546494	 -0.624492	 -0.000609
C	 4.124123	 -0.644674	 -0.000428
C	 0.291004	 0.242674	 0.000989
H	 1.557904	 -1.283758	 -0.867573
H	 1.558622	 -1.285963	 0.864672
C	 -0.994322	 -0.586602	 0.000262
H	 0.309117	 0.896430	 -0.865270
H	 0.309661	 0.894078	 0.869017
C	 -2.259874	 0.272531	 0.000494
H	 -1.004862	 -1.240012	 -0.870939
H	 -1.005220	 -1.241071	 0.870675
C	 -3.222185	 -0.067478	 1.139952
H	 -2.774532	 0.154609	 -0.951473
H	 -1.981313	 1.322757	 0.067021
C	 -4.484019	 0.794737	 1.133356
H	 -3.502286	 -1.116759	 1.073804
H	 -2.709310	 0.051485	 2.092142
H	 -5.037777	 0.671972	 0.206841
H	 -5.146257	 0.529868	 1.951882
H	 -4.239283	 1.848401	 1.233563
H	 4.165367	 -1.288615	 -0.874074
H	 4.976217	 0.020734	 -0.001915
H	 4.166763	 -1.286207	 0.874930

15 11 8 12 F
