%nprocshared=4
%mem=2GB
#HF/cc-pVTZ nosymm scf=tight opt=ModRedundant

Mol

0 1
O	 -0.137668	 -0.985405	 -2.894150
C	 -0.651159	 -0.174825	 -2.193637
C	 -0.881910	 -0.448129	 -0.720509
C	 -1.082245	 1.171621	 -2.724688
C	 0.376695	 -0.140025	 0.100361
H	 -1.135456	 -1.495596	 -0.617363
H	 -1.714932	 0.142428	 -0.354201
C	 1.630207	 -0.772146	 -0.501001
H	 0.486632	 0.935267	 0.162725
H	 0.248225	 -0.501310	 1.117842
C	 2.907848	 -0.545876	 0.309149
H	 1.772784	 -0.391628	 -1.509394
H	 1.468529	 -1.842059	 -0.599744
C	 3.373802	 0.906639	 0.372125
H	 3.699140	 -1.146831	 -0.127906
H	 2.764321	 -0.923458	 1.318191
H	 3.519798	 1.311927	 -0.623875
H	 4.316899	 0.983758	 0.900700
H	 2.661122	 1.540651	 0.885346
H	 -2.165733	 1.232367	 -2.705638
H	 -0.731971	 1.301749	 -3.737084
H	 -0.705736	 1.970000	 -2.095069

6 3 5 8 F
