%nprocshared=1
%mem=2GB
#HF/6-31G* nosymm scf=tight opt=ModRedundant

Mol

0 1
H	 -3.420663	 1.227371	 -1.044276
O	 -3.452007	 0.283848	 -0.965577
C	 -3.181085	 -0.079926	 0.364119
C	 -1.765924	 0.277073	 0.805136
H	 -3.327791	 -1.152017	 0.410903
H	 -3.905698	 0.375695	 1.036898
C	 -0.677594	 -0.417312	 -0.014550
H	 -1.637766	 1.358238	 0.744969
H	 -1.659588	 0.017670	 1.857098
C	 0.738335	 -0.034840	 0.421385
H	 -0.814977	 -0.178223	 -1.064632
H	 -0.802730	 -1.495410	 0.071702
C	 1.705417	 0.102134	 -0.757629
H	 0.696965	 0.898197	 0.978296
H	 1.119948	 -0.785896	 1.111957
C	 3.157656	 0.397456	 -0.365273
H	 1.348772	 0.884062	 -1.426276
H	 1.684716	 -0.820786	 -1.333483
C	 3.373391	 1.760591	 0.294823
H	 3.773769	 0.342437	 -1.259515
H	 3.517255	 -0.386211	 0.298623
H	 3.011268	 2.563728	 -0.341554
H	 4.428731	 1.936888	 0.479254
H	 2.860259	 1.836588	 1.247757

13 10 7 11 F
