%nprocshared=4
%mem=2GB
#HF/6-31G* nosymm scf=tight opt=ModRedundant

Mol

0 1
O	 3.225979	 0.970355	 -0.599647
C	 2.701189	 0.057885	 -0.047330
C	 1.245376	 -0.013843	 0.345420
O	 3.347903	 -1.046386	 0.304773
C	 0.455112	 1.231400	 -0.050772
H	 0.838542	 -0.913825	 -0.103701
H	 1.208210	 -0.175333	 1.419774
C	 -0.998893	 1.219485	 0.433193
H	 0.482531	 1.345121	 -1.130325
H	 0.957290	 2.103070	 0.354729
C	 -1.883438	 0.145884	 -0.207175
H	 -1.431207	 2.195402	 0.224832
H	 -1.019646	 1.105716	 1.516076
C	 -1.091890	 -0.843009	 -1.065396
H	 -2.409091	 -0.398344	 0.575975
H	 -2.649795	 0.610460	 -0.823486
C	 -1.966286	 -1.917307	 -1.714585
H	 -0.330777	 -1.322547	 -0.452220
H	 -0.557468	 -0.298269	 -1.842153
C	 -1.167688	 -2.903052	 -2.566787
H	 -2.501811	 -2.461955	 -0.939851
H	 -2.724966	 -1.440053	 -2.331362
H	 -1.814744	 -3.651772	 -3.013265
H	 -0.422883	 -3.422777	 -1.970676
H	 -0.647313	 -2.392830	 -3.372490
C	 4.728119	 -1.109107	 -0.004993
H	 4.882018	 -1.033965	 -1.071845
H	 5.068212	 -2.067527	 0.355250
H	 5.265056	 -0.311663	 0.488280

15 11 8 5 F
