%nprocshared=4
%mem=2GB
#HF/cc-pVTZ nosymm scf=tight opt=ModRedundant

Mol

0 1
O	 -1.850450	 -3.209642	 -3.894519
C	 -2.703225	 -3.669117	 -3.207667
C	 -3.172266	 -2.992014	 -1.935911
C	 -3.383027	 -4.972562	 -3.561397
C	 -2.459902	 -1.685074	 -1.617678
H	 -4.244781	 -2.834569	 -2.025305
H	 -3.052617	 -3.704167	 -1.122567
C	 -2.964640	 -1.040326	 -0.329791
H	 -2.587525	 -0.999433	 -2.447571
H	 -1.394257	 -1.869823	 -1.544171
C	 -2.258482	 0.271340	 0.000669
H	 -4.034416	 -0.860181	 -0.409792
H	 -2.835332	 -1.734356	 0.497774
C	 -2.305585	 1.289336	 -1.135201
H	 -1.221508	 0.065897	 0.254819
H	 -2.707821	 0.706040	 0.890196
C	 -3.572900	 2.137654	 -1.127623
H	 -1.437227	 1.939525	 -1.070796
H	 -2.226298	 0.769809	 -2.086371
H	 -3.663669	 2.697063	 -0.202494
H	 -3.574663	 2.849112	 -1.945453
H	 -4.458537	 1.518747	 -1.225834
H	 -4.450664	 -4.819154	 -3.673937
H	 -2.972946	 -5.361748	 -4.480505
H	 -3.243718	 -5.695038	 -2.764740

15 11 14 18 F
