%nprocshared=4
%mem=2GB
#HF/cc-pVTZ nosymm scf=tight opt=ModRedundant

Mol

0 1
O	 -2.817697	 1.304178	 0.001046
C	 -2.664672	 0.129869	 0.003507
C	 -3.797908	 -0.860100	 -0.001145
O	 -1.481217	 -0.452708	 0.001092
H	 -4.408836	 -0.679689	 -0.875387
H	 -3.443486	 -1.878443	 -0.002770
H	 -4.412123	 -0.683688	 0.871605
C	 -0.332055	 0.384012	 -0.000250
C	 0.892252	 -0.506059	 -0.000295
H	 -0.360822	 1.020205	 -0.874146
H	 -0.359817	 1.021310	 0.872861
C	 2.188199	 0.299473	 -0.001416
H	 0.857046	 -1.152781	 -0.871031
H	 0.857910	 -1.151798	 0.871202
C	 1.974232	 1.775513	 -0.324911
H	 2.669748	 0.212923	 0.969458
H	 2.879886	 -0.127599	 -0.723325
C	 3.269161	 2.580598	 -0.327298
H	 1.284565	 2.203836	 0.396862
H	 1.493217	 1.863271	 -1.294968
H	 3.756819	 2.540468	 0.640908
H	 3.082581	 3.622445	 -0.560213
H	 3.967218	 2.197048	 -1.063817

16 12 9 13 F
