%nprocshared=1
%mem=2GB
#HF/6-31G* nosymm scf=tight opt=ModRedundant

Mol

0 1
O	 2.862325	 1.357334	 0.000267
C	 2.843464	 0.164689	 -0.000222
C	 1.546494	 -0.624492	 -0.000609
C	 4.124123	 -0.644674	 -0.000428
C	 0.291004	 0.242674	 0.000989
H	 1.557904	 -1.283758	 -0.867573
H	 1.558622	 -1.285963	 0.864672
C	 -0.662374	 -0.108113	 1.144571
H	 -0.218346	 0.132924	 -0.951192
H	 0.579887	 1.286789	 0.068209
C	 -1.925654	 0.754290	 1.155349
H	 -0.945292	 -1.157349	 1.073087
H	 -0.144724	 0.002504	 2.096343
C	 -2.884428	 0.409332	 2.296300
H	 -2.444308	 0.643943	 0.204644
H	 -1.644078	 1.803329	 1.227656
C	 -4.144009	 1.274853	 2.300256
H	 -3.167540	 -0.638761	 2.224385
H	 -2.367554	 0.520723	 3.247243
H	 -4.701677	 1.159598	 1.375122
H	 -4.803762	 1.006354	 3.119606
H	 -3.896118	 2.327197	 2.406395
H	 4.165367	 -1.288615	 -0.874074
H	 4.976217	 0.020734	 -0.001915
H	 4.166763	 -1.286207	 0.874930

9 5 3 6 F
