%nprocshared=4
%mem=2GB
#HF/cc-pVTZ nosymm scf=tight opt=ModRedundant

Mol

0 1
H	 -1.088256	 -1.364742	 0.152233
O	 -1.432053	 -0.565244	 -0.200812
C	 -0.727158	 0.534527	 0.310686
C	 0.680222	 0.664433	 -0.252229
H	 -1.306802	 1.408001	 0.044211
H	 -0.690821	 0.490158	 1.397609
C	 1.656857	 -0.381786	 0.276597
H	 0.627475	 0.602903	 -1.334201
H	 1.048006	 1.657478	 -0.008827
H	 1.353435	 -1.385598	 0.000154
H	 2.649593	 -0.225578	 -0.127910
H	 1.731841	 -0.338586	 1.358940

8 4 3 2 F
