%nprocshared=1
%mem=2GB
#HF/6-31G* nosymm scf=tight 

Mol

0 1
H	 -2.172150	 0.880146	 0.502514
C	 -2.018062	 -0.000025	 -0.114509
O	 -0.774054	 0.001095	 -0.743181
H	 -2.760490	 0.003458	 -0.901350
H	 -2.173624	 -0.884374	 0.496163
C	 0.143254	 1.048151	 -0.480973
C	 1.355842	 0.688624	 -1.336767
C	 -0.423309	 2.402082	 -0.920366
C	 0.538733	 1.079040	 0.998810
H	 1.073455	 0.639692	 -2.382374
H	 1.742786	 -0.281755	 -1.046916
H	 2.145475	 1.424549	 -1.224711
H	 -0.766728	 2.349634	 -1.948151
H	 0.341714	 3.168926	 -0.854861
H	 -1.253822	 2.719288	 -0.298930
H	 0.871519	 0.097363	 1.319146
H	 1.349770	 1.782514	 1.156526
H	 -0.284024	 1.385162	 1.635985

2 3 6 7 F
