%nprocshared=4
%mem=2GB
#HF/cc-pVTZ nosymm scf=tight opt=ModRedundant

Mol

0 1
H	 -0.000342	 -0.223902	 -3.352295
C	 -0.027146	 0.371068	 -2.446756
C	 0.024493	 -0.518541	 -1.216015
H	 -0.932586	 0.964979	 -2.449855
H	 0.819708	 1.049865	 -2.473332
N	 -0.042516	 0.263377	 0.000000
H	 -0.822211	 -1.197105	 -1.225584
H	 0.921114	 -1.142847	 -1.255206
C	 0.024493	 -0.518541	 1.216015
H	 0.682568	 0.950412	 0.000000
C	 -1.322416	 -1.139028	 1.547115
H	 0.757641	 -1.304917	 1.069200
H	 0.372176	 0.072909	 2.067207
H	 -1.662955	 -1.767045	 0.733365
H	 -1.257363	 -1.741683	 2.445605
H	 -2.073296	 -0.373645	 1.717411

12 9 6 3 F
