%nprocshared=1
%mem=2GB
#HF/6-31G* nosymm scf=tight opt=ModRedundant

Mol

0 1
O	 1.214711	 1.306902	 -0.000018
C	 1.122059	 0.121804	 -0.000188
C	 -0.170150	 -0.657997	 -0.000612
O	 2.172624	 -0.688929	 0.000216
C	 -1.412532	 0.227344	 -0.000452
H	 -0.153702	 -1.313099	 -0.867402
H	 -0.153924	 -1.313811	 0.865644
C	 -2.483437	 -0.273803	 0.969795
H	 -1.819507	 0.273965	 -1.005789
H	 -1.128752	 1.243007	 0.257233
C	 -3.731238	 0.608207	 0.977249
H	 -2.763564	 -1.292068	 0.707609
H	 -2.069624	 -0.321064	 1.975079
H	 -4.188330	 0.648067	 -0.007196
H	 -4.474410	 0.230982	 1.672716
H	 -3.489537	 1.625833	 1.269923
C	 3.452279	 -0.082609	 0.000533
H	 3.583069	 0.529321	 -0.880332
H	 4.163299	 -0.894027	 0.001117
H	 3.582335	 0.529955	 0.881077

9 5 3 6 F
