%nprocshared=4
%mem=2GB
#HF/6-31G* nosymm scf=tight opt=ModRedundant

Mol

0 1
H	 -1.487101	 4.148576	 -0.606712
O	 -0.798186	 3.547221	 -0.850992
C	 -0.903722	 2.372924	 -0.087788
C	 0.213850	 1.433622	 -0.505509
H	 -0.823911	 2.598191	 0.974846
H	 -1.870213	 1.897098	 -0.248492
C	 0.198102	 0.111031	 0.262842
H	 1.162137	 1.942528	 -0.355520
H	 0.124195	 1.248727	 -1.572399
C	 1.331804	 -0.827780	 -0.158768
H	 0.264244	 0.316057	 1.328564
H	 -0.756354	 -0.389666	 0.105250
C	 2.723619	 -0.410569	 0.329459
H	 1.342964	 -0.912588	 -1.244120
H	 1.116806	 -1.824343	 0.220779
C	 3.243875	 0.895854	 -0.272975
H	 3.424222	 -1.207124	 0.091250
H	 2.714788	 -0.329854	 1.414619
H	 3.251977	 0.848779	 -1.358681
H	 2.637085	 1.747371	 0.016682
H	 4.259473	 1.094070	 0.055697

4 7 10 14 F
