%nprocshared=4
%mem=2GB
#HF/cc-pVTZ nosymm scf=tight opt=ModRedundant

Mol

0 1
O	 -0.661489	 -1.654523	 1.661367
C	 -1.523129	 -1.436538	 0.878753
C	 -2.789244	 -2.244153	 0.783920
O	 -1.481217	 -0.452708	 0.001092
H	 -3.292492	 -2.208695	 1.740771
H	 -3.443818	 -1.877968	 0.009271
H	 -2.525724	 -3.274947	 0.588738
C	 -0.332055	 0.384012	 -0.000250
C	 0.892252	 -0.506059	 -0.000295
H	 -0.360822	 1.020205	 -0.874146
H	 -0.359817	 1.021310	 0.872861
C	 2.188199	 0.299473	 -0.001416
H	 0.857046	 -1.152781	 -0.871031
H	 0.857910	 -1.151798	 0.871202
C	 2.252133	 1.327305	 -1.127737
H	 2.299722	 0.808200	 0.952909
H	 3.035264	 -0.376687	 -0.086634
C	 3.547512	 2.131667	 -1.129929
H	 1.407134	 2.004644	 -1.042621
H	 2.140958	 0.820084	 -2.081914
H	 3.670499	 2.678168	 -0.200921
H	 3.560959	 2.850905	 -1.940498
H	 4.410037	 1.484382	 -1.247941

16 12 9 13 F
