%nprocshared=4
%mem=2GB
#HF/cc-pVTZ nosymm scf=tight opt=ModRedundant

Mol

0 1
O	 0.144699	 -0.077679	 -0.636511
C	 1.121787	 0.124983	 0.000110
C	 1.347797	 1.309971	 0.903540
O	 2.167739	 -0.685178	 -0.000678
C	 0.176705	 2.280868	 0.946285
H	 1.572720	 0.921701	 1.891537
H	 2.254230	 1.802077	 0.566388
C	 0.438520	 3.467050	 1.869721
H	 -0.713978	 1.753658	 1.269199
H	 -0.031458	 2.635380	 -0.056976
C	 -0.729828	 4.445384	 1.921809
H	 0.649722	 3.105396	 2.872638
H	 1.332165	 3.991238	 1.541299
H	 -1.630851	 3.958994	 2.279813
H	 -0.516271	 5.276223	 2.584211
H	 -0.943389	 4.851364	 0.938878
C	 3.449556	 -0.089977	 -0.000570
H	 3.585694	 0.522473	 -0.879546
H	 4.155805	 -0.904274	 -0.001389
H	 3.586173	 0.521118	 0.879272

1 2 4 17 F
