%nprocshared=4
%mem=2GB
#HF/cc-pVTZ nosymm scf=tight opt=ModRedundant

Mol

0 1
O	 -2.081319	 -0.951530	 -0.502732
N	 -1.613558	 0.006676	 0.014756
C	 -0.329345	 -0.171618	 0.743966
O	 -2.068523	 1.100482	 -0.024385
C	 0.472940	 1.122387	 0.689399
H	 0.183082	 -0.981703	 0.252439
H	 -0.593664	 -0.437229	 1.753826
C	 1.801335	 0.984775	 1.428720
H	 0.650994	 1.382599	 -0.347493
H	 -0.115029	 1.919678	 1.129124
C	 2.621570	 2.269527	 1.395478
H	 2.377569	 0.176473	 0.988218
H	 1.612714	 0.702985	 2.460429
H	 2.854382	 2.558229	 0.376583
H	 2.082846	 3.089171	 1.857729
H	 3.556990	 2.145450	 1.927228

5 3 2 1 F
