%nprocshared=4
%mem=2GB
#HF/cc-pVTZ nosymm scf=tight opt=ModRedundant

Mol

0 1
O	 1.371313	 1.045657	 0.700935
C	 1.121787	 0.124983	 0.000110
C	 -0.170912	 -0.649867	 -0.000147
O	 1.969101	 -0.353489	 -0.896273
C	 -1.413045	 0.229353	 0.001137
H	 -0.152877	 -1.303435	 -0.866175
H	 -0.152278	 -1.305116	 0.864586
C	 -2.373807	 -0.123601	 1.132803
H	 -1.919240	 0.135487	 -0.953062
H	 -1.115960	 1.268914	 0.082357
C	 -3.623391	 0.750094	 1.142092
H	 -2.665292	 -1.167195	 1.048017
H	 -1.860959	 -0.027885	 2.086251
H	 -4.176970	 0.649801	 0.214689
H	 -4.286454	 0.477378	 1.954897
H	 -3.366846	 1.797340	 1.260580
C	 3.226978	 0.281687	 -1.004047
H	 3.107866	 1.319775	 -1.276836
H	 3.762124	 -0.246898	 -1.776112
H	 3.765395	 0.222432	 -0.069799

9 5 3 6 F
