%nprocshared=4
%mem=2GB
#HF/cc-pVTZ nosymm scf=tight opt=ModRedundant

Mol

0 1
O	 0.798348	 0.050742	 0.758677
C	 1.704209	 0.119472	 -0.000093
C	 1.868086	 1.162310	 -1.075860
O	 2.715427	 -0.733672	 0.000025
C	 0.733097	 2.175003	 -1.126606
H	 2.822671	 1.649906	 -0.907140
H	 1.968214	 0.636481	 -2.019746
C	 0.931219	 3.214425	 -2.225864
H	 0.650564	 2.667692	 -0.164463
H	 -0.204935	 1.653050	 -1.278105
C	 -0.197773	 4.238819	 -2.292665
H	 1.874821	 3.732506	 -2.069475
H	 1.016434	 2.713549	 -3.187685
C	 0.000427	 5.277977	 -3.390972
H	 -0.283158	 4.740379	 -1.332819
H	 -1.140522	 3.722601	 -2.450474
H	 0.919231	 5.835414	 -3.241649
H	 -0.817447	 5.988912	 -3.410664
H	 0.054692	 4.809632	 -4.368184
C	 4.020999	 -0.192556	 0.000019
H	 4.182809	 0.412891	 -0.879449
H	 4.692590	 -1.035653	 0.000152
H	 4.182726	 0.413087	 0.879368

1 2 4 20 F
