%nprocshared=4
%mem=2GB
#HF/cc-pVTZ nosymm scf=tight opt=ModRedundant

Mol

0 1
H	 -2.656657	 0.818198	 0.962451
C	 -2.103808	 1.726085	 1.192630
O	 -0.735677	 1.538206	 1.049597
H	 -2.405105	 2.500817	 0.502776
H	 -2.361224	 2.038518	 2.203079
C	 -0.198950	 0.568846	 1.888586
C	 1.263701	 0.376180	 1.575732
H	 -0.299894	 0.873472	 2.930211
H	 -0.718981	 -0.378549	 1.764328
O	 1.401606	 -0.295166	 0.366636
H	 1.751495	 1.347664	 1.534433
H	 1.724153	 -0.197082	 2.380298
C	 2.714315	 -0.441627	 -0.061017
H	 2.765292	 -0.641548	 -1.128869
H	 3.305661	 0.447341	 0.150952
H	 3.143725	 -1.278506	 0.470147

7 10 13 14 F
