%nprocshared=4
%mem=2GB
#HF/cc-pVTZ nosymm scf=tight opt=ModRedundant

Mol

0 1
H	 1.821212	 -0.696749	 1.546099
C	 1.908917	 -0.182980	 0.579660
C	 0.692262	 0.592428	 0.156232
O	 2.908004	 -0.267919	 -0.046634
C	 -0.554654	 -0.292621	 0.086567
H	 0.898056	 1.059341	 -0.797958
H	 0.535716	 1.379272	 0.891248
C	 -1.846385	 0.513195	 -0.016346
H	 -0.473986	 -0.956115	 -0.769708
H	 -0.597929	 -0.929215	 0.966651
C	 -3.089953	 -0.365049	 -0.098564
H	 -1.798267	 1.154820	 -0.891143
H	 -1.925398	 1.173265	 0.842889
H	 -3.055079	 -1.012299	 -0.968245
H	 -3.988403	 0.236438	 -0.170014
H	 -3.183055	 -0.995885	 0.779079

6 3 5 9 F
