%nprocshared=4
%mem=2GB
#HF/cc-pVTZ nosymm scf=tight opt=ModRedundant

Mol

0 1
O	 -0.694481	 1.313155	 -0.204815
C	 -0.862519	 0.151932	 -0.046791
C	 -2.171428	 -0.477048	 0.339095
O	 0.085519	 -0.757083	 -0.192238
H	 -2.467997	 -1.191667	 -0.417688
H	 -2.923379	 0.287970	 0.444097
H	 -2.053854	 -1.015120	 1.270901
C	 1.330869	 -0.559038	 0.466824
C	 1.294851	 -1.062090	 1.894949
H	 1.590225	 0.487463	 0.429593
H	 2.043209	 -1.119022	 -0.120322
H	 2.276799	 -0.956151	 2.342169
H	 0.589138	 -0.495355	 2.486695
H	 1.018240	 -2.109075	 1.924969

8 4 2 1 F
