%nprocshared=4
%mem=2GB
#HF/cc-pVTZ nosymm scf=tight opt=ModRedundant

Mol

0 1
H	 -3.436473	 1.252944	 -1.023892
O	 -3.458596	 0.315260	 -0.960865
C	 -3.176635	 -0.080824	 0.355601
C	 -1.763371	 0.265266	 0.799691
H	 -3.321825	 -1.153438	 0.379502
H	 -3.895468	 0.357385	 1.043382
C	 -0.673390	 -0.426948	 -0.013392
H	 -1.631049	 1.344913	 0.747560
H	 -1.664587	 -0.001624	 1.849167
C	 -1.144982	 -0.870863	 -1.395605
H	 -0.306033	 -1.284919	 0.538738
H	 0.170852	 0.249929	 -0.121089
C	 -0.047969	 -1.558413	 -2.206091
H	 -1.994181	 -1.537590	 -1.280604
H	 -1.508202	 -0.006720	 -1.948040
C	 -0.448659	 -1.950100	 -3.629424
H	 0.289504	 -2.444361	 -1.673121
H	 0.810265	 -0.894308	 -2.261028
C	 -1.521239	 -3.033298	 -3.715424
H	 0.437592	 -2.297097	 -4.151850
H	 -0.786752	 -1.065495	 -4.162891
H	 -1.213160	 -3.928836	 -3.185163
H	 -1.707007	 -3.309236	 -4.747214
H	 -2.463329	 -2.706245	 -3.292214

11 7 4 3 F
