%nprocshared=4
%mem=2GB
#HF/cc-pVTZ nosymm scf=tight opt=ModRedundant

Mol

0 1
H	 2.183042	 -0.617906	 5.905882
C	 1.359329	 0.082675	 5.831387
C	 1.029950	 0.393463	 4.375281
H	 0.505977	 -0.355100	 6.337707
H	 1.639397	 0.981246	 6.371694
C	 -0.120581	 1.387209	 4.231348
H	 0.778879	 -0.527148	 3.861105
H	 1.913746	 0.795523	 3.885306
C	 -0.468588	 1.722222	 2.784439
H	 -1.001668	 0.995298	 4.724219
H	 0.142635	 2.309711	 4.740751
C	 -1.158526	 0.603377	 2.022431
H	 -1.147689	 2.570606	 2.755587
H	 0.414421	 2.033819	 2.234239
C	 -1.180025	 0.697761	 0.509157
O	 -1.682058	 -0.304048	 2.584365
C	 -2.285431	 -0.137488	 -0.145671
H	 -0.209921	 0.373472	 0.157623
H	 -1.304974	 1.741273	 0.232271
C	 -3.646545	 0.082747	 0.508954
H	 -2.348635	 0.118247	 -1.199806
H	 -2.034895	 -1.192387	 -0.096473
C	 -4.757412	 -0.737227	 -0.138149
H	 -3.900211	 1.137405	 0.459735
H	 -3.580878	 -0.166775	 1.564416
H	 -4.867876	 -0.486707	 -1.187777
H	 -4.549650	 -1.800049	 -0.072540
H	 -5.709585	 -0.556397	 0.346597

16 12 15 17 F
