%nprocshared=4
%mem=2GB
#HF/cc-pVTZ nosymm scf=tight opt=ModRedundant

Mol

0 1
H	 -1.088256	 -1.364742	 0.152233
O	 -1.432053	 -0.565244	 -0.200812
C	 -0.727158	 0.534527	 0.310686
C	 0.680222	 0.664433	 -0.252229
H	 -1.306802	 1.408001	 0.044211
H	 -0.690821	 0.490158	 1.397609
C	 1.250412	 -0.640782	 -0.799352
H	 0.672537	 1.417149	 -1.033632
H	 1.324718	 1.036231	 0.539630
H	 0.665486	 -1.012168	 -1.633653
H	 2.263697	 -0.502118	 -1.156533
H	 1.273455	 -1.411272	 -0.034649

8 4 3 2 F
