%nprocshared=4
%mem=2GB
#HF/cc-pVTZ nosymm scf=tight opt=ModRedundant

Mol

0 1
H	 0.786477	 -2.498560	 5.808425
C	 0.601472	 -1.432282	 5.747665
C	 0.485359	 -0.974675	 4.297687
H	 -0.311072	 -1.223197	 6.295171
H	 1.415662	 -0.925766	 6.255932
C	 0.234971	 0.526535	 4.172616
H	 -0.319619	 -1.516844	 3.814983
H	 1.399031	 -1.230777	 3.766237
C	 0.120521	 1.014625	 2.731937
H	 -0.669991	 0.788666	 4.706619
H	 1.050259	 1.062387	 4.650060
C	 -1.158526	 0.603377	 2.022431
H	 0.143061	 2.101218	 2.707974
H	 0.972970	 0.689975	 2.142488
C	 -1.180025	 0.697761	 0.509157
O	 -2.117161	 0.240323	 2.624499
C	 -2.285431	 -0.137488	 -0.145671
H	 -0.209921	 0.373472	 0.157623
H	 -1.304974	 1.741273	 0.232271
C	 -3.646545	 0.082747	 0.508954
H	 -2.348635	 0.118247	 -1.199806
H	 -2.034895	 -1.192387	 -0.096473
C	 -4.757412	 -0.737227	 -0.138149
H	 -3.900211	 1.137405	 0.459735
H	 -3.580878	 -0.166775	 1.564416
H	 -4.867876	 -0.486707	 -1.187777
H	 -4.549650	 -1.800049	 -0.072540
H	 -5.709585	 -0.556397	 0.346597

16 12 15 17 F
