%nprocshared=4
%mem=2GB
#HF/cc-pVTZ nosymm scf=tight opt=ModRedundant

Mol

0 1
O	 -0.482906	 -2.512241	 -1.791730
C	 -0.554356	 -1.332040	 -1.907715
C	 -0.881910	 -0.448129	 -0.720509
C	 -0.305466	 -0.650000	 -3.231967
C	 0.376695	 -0.140025	 0.100361
H	 -1.596634	 -0.978716	 -0.104264
H	 -1.339746	 0.476752	 -1.054942
C	 1.630207	 -0.772146	 -0.501001
H	 0.486632	 0.935267	 0.162725
H	 0.248225	 -0.501310	 1.117842
C	 2.907848	 -0.545876	 0.309149
H	 1.772784	 -0.391628	 -1.509394
H	 1.468529	 -1.842059	 -0.599744
C	 3.373802	 0.906639	 0.372125
H	 3.699140	 -1.146831	 -0.127906
H	 2.764321	 -0.923458	 1.318191
H	 3.519798	 1.311927	 -0.623875
H	 4.316899	 0.983758	 0.900700
H	 2.661122	 1.540651	 0.885346
H	 -1.233959	 -0.216984	 -3.590289
H	 0.061912	 -1.362679	 -3.954249
H	 0.403279	 0.162440	 -3.117027

6 3 5 8 F
