%nprocshared=4
%mem=2GB
#HF/cc-pVTZ nosymm scf=tight opt=ModRedundant

Mol

0 1
O	 -2.071633	 -1.227563	 -0.223463
C	 -1.652164	 -0.152425	 0.058082
C	 -0.327811	 0.006324	 0.778296
C	 -2.402515	 1.108629	 -0.298924
C	 -0.163610	 -1.055764	 1.872111
H	 0.493834	 -0.062062	 0.073066
H	 -0.313453	 0.992741	 1.223956
C	 1.151381	 -0.918536	 2.633817
H	 -0.219902	 -2.048364	 1.432487
H	 -0.996176	 -0.974663	 2.562489
C	 1.313434	 -1.964970	 3.731031
H	 1.981331	 -0.994405	 1.936715
H	 1.208360	 0.074357	 3.070230
H	 1.295697	 -2.969159	 3.320757
H	 0.514531	 -1.892702	 4.461030
H	 2.253381	 -1.838951	 4.255454
H	 -3.240910	 0.874416	 -0.936711
H	 -1.747554	 1.818823	 -0.790984
H	 -2.760419	 1.579708	 0.610998

5 3 2 4 F
