%nprocshared=4
%mem=2GB
#HF/6-31G* nosymm scf=tight opt=ModRedundant

Mol

0 1
O	 -0.988096	 -1.408613	 0.050699
C	 -0.676749	 -0.249230	 -0.009274
C	 -1.746085	 0.827156	 -0.009539
N	 0.623947	 0.147590	 -0.102813
H	 -1.701500	 1.431508	 -0.908902
H	 -2.703425	 0.330732	 0.036390
H	 -1.647323	 1.487769	 0.845106
C	 1.534375	 -0.197483	 0.971395
C	 1.095138	 1.171948	 -1.008857
H	 2.503725	 -0.450252	 0.556082
H	 1.146255	 -1.042665	 1.512662
H	 1.663578	 0.633120	 1.661921
H	 2.113389	 0.944962	 -1.301570
H	 0.499162	 1.212621	 -1.906683
H	 1.090986	 2.157069	 -0.545895

8 4 2 3 F
