%nprocshared=4
%mem=2GB
#HF/cc-pVTZ nosymm scf=tight opt=ModRedundant

Mol

0 1
H	 2.012744	 -0.722438	 -2.703310
O	 2.436932	 -0.199041	 -2.046925
C	 1.586703	 0.139294	 -1.061419
C	 2.084932	 0.914583	 -0.024203
C	 0.265631	 -0.254516	 -1.055239
H	 3.115163	 1.209845	 -0.048675
C	 1.261221	 1.291248	 1.011642
H	 -0.145099	 -0.852485	 -1.842025
C	 -0.532034	 0.141680	 0.000000
H	 1.655000	 1.890443	 1.808920
C	 -0.069299	 0.908040	 1.040121
N	 -1.937041	 -0.281114	 0.000000
H	 -0.720345	 1.192859	 1.837454
O	 -2.159542	 -1.446261	 0.000000
O	 -2.764978	 0.565773	 0.000000

11 9 12 14 F
