%nprocshared=4
%mem=2GB
#HF/cc-pVTZ nosymm scf=tight opt=ModRedundant

Mol

0 1
H	 -8.975011	 3.148737	 -1.201146
C	 -8.586390	 3.081451	 -2.226491
C	 -8.449127	 1.681873	 -2.761496
O	 -8.302596	 4.065262	 -2.817156
C	 -7.102600	 1.439829	 -3.449940
H	 -8.613214	 0.985175	 -1.949694
H	 -9.249875	 1.546485	 -3.485222
C	 -5.911952	 1.467312	 -2.494019
H	 -7.141178	 0.478164	 -3.949991
H	 -6.960109	 2.181190	 -4.232420
C	 -5.641798	 2.853761	 -1.915610
H	 -5.027575	 1.115743	 -3.018790
H	 -6.076773	 0.765574	 -1.680492
C	 -6.900381	 3.527547	 -1.372262
H	 -4.897172	 2.768172	 -1.130401
H	 -5.203085	 3.484455	 -2.685710
C	 -7.827821	 4.111512	 -2.439380
H	 -6.614724	 4.314215	 -0.677756
H	 -7.459838	 2.800038	 -0.790848
C	 -7.244121	 5.287623	 -3.218572
H	 -8.743922	 4.435874	 -1.955707
H	 -8.114795	 3.326049	 -3.133643
H	 -6.941812	 6.086551	 -2.549005
H	 -6.377675	 4.999038	 -3.801388
H	 -7.976863	 5.694192	 -3.906144

8 11 14 18 F
