%nprocshared=1
%mem=2GB
#HF/6-31G* nosymm scf=tight opt=ModRedundant

Mol

0 1
O	 -0.682937	 1.318834	 -0.186099
C	 -0.860635	 0.152188	 -0.042321
C	 -2.173363	 -0.477127	 0.338347
O	 0.083258	 -0.765189	 -0.202595
H	 -2.477673	 -1.180929	 -0.427595
H	 -2.923125	 0.290956	 0.455536
H	 -2.058825	 -1.029004	 1.264191
C	 1.237710	 -0.424104	 -0.966597
C	 2.269155	 0.301399	 -0.122551
H	 0.937990	 0.170081	 -1.816452
H	 1.620878	 -1.371896	 -1.316414
H	 3.164619	 0.479711	 -0.709984
H	 1.888261	 1.257017	 0.215208
H	 2.541793	 -0.294165	 0.741965

8 4 2 1 F
