%nprocshared=4
%mem=2GB
#HF/cc-pVTZ nosymm scf=tight opt=ModRedundant

Mol

0 1
O	 2.781562	 1.488496	 0.757433
C	 2.707333	 0.374491	 1.161899
C	 1.410740	 -0.409329	 1.144489
C	 3.914019	 -0.341019	 1.725972
C	 0.222634	 0.349721	 0.570837
H	 1.589353	 -1.325139	 0.585511
H	 1.207868	 -0.729250	 2.164047
C	 -1.059342	 -0.478315	 0.573740
H	 0.456044	 0.663916	 -0.440062
H	 0.074329	 1.260424	 1.139834
C	 -2.258482	 0.271340	 0.000669
H	 -0.902444	 -1.391162	 0.003330
H	 -1.286120	 -0.791577	 1.590451
C	 -3.544441	 -0.550271	 -0.000253
H	 -2.032845	 0.584678	 -1.015707
H	 -2.416608	 1.183593	 0.570685
C	 -4.804551	 0.308747	 0.000556
H	 -3.553737	 -1.201524	 -0.870151
H	 -3.553831	 -1.203282	 0.868313
H	 -4.842050	 0.949078	 -0.874436
H	 -5.698404	 -0.304480	 -0.000254
H	 -4.842277	 0.947103	 0.876982
H	 4.111819	 -1.244443	 1.159627
H	 4.775409	 0.307777	 1.687711
H	 3.726432	 -0.638608	 2.751786

15 11 14 18 F
