%nprocshared=1
%mem=2GB
#HF/6-31G* nosymm scf=tight 

Mol

0 1
O	 2.862325	 1.357334	 0.000267
C	 2.843464	 0.164689	 -0.000222
C	 1.546494	 -0.624492	 -0.000609
C	 4.124123	 -0.644674	 -0.000428
C	 0.291004	 0.242674	 0.000989
H	 1.557904	 -1.283758	 -0.867573
H	 1.558622	 -1.285963	 0.864672
C	 0.004008	 0.856260	 1.372451
H	 -0.555402	 -0.356233	 -0.320004
H	 0.400557	 1.028642	 -0.739552
C	 -1.253580	 1.726898	 1.386344
H	 -0.101264	 0.062730	 2.110878
H	 0.857434	 1.454187	 1.689018
C	 -1.547472	 2.344143	 2.754792
H	 -2.107475	 1.130016	 1.070729
H	 -1.149104	 2.521022	 0.649154
C	 -2.805279	 3.212228	 2.760725
H	 -1.653295	 1.551239	 3.492307
H	 -0.695223	 2.942262	 3.070677
H	 -3.681739	 2.634233	 2.481636
H	 -2.987394	 3.634955	 3.744003
H	 -2.716439	 4.035789	 2.057874
H	 4.165367	 -1.288615	 -0.874074
H	 4.976217	 0.020734	 -0.001915
H	 4.166763	 -1.286207	 0.874930

9 5 8 12 F
15 11 8 12 F
15 11 14 18 F
1 2 3 6 F
