%nprocshared=4
%mem=2GB
#HF/cc-pVTZ nosymm scf=tight opt=ModRedundant

Mol

0 1
H	 -3.436473	 1.252944	 -1.023892
O	 -3.458596	 0.315260	 -0.960865
C	 -3.176635	 -0.080824	 0.355601
C	 -1.763371	 0.265266	 0.799691
H	 -3.321825	 -1.153438	 0.379502
H	 -3.895468	 0.357385	 1.043382
C	 -0.673390	 -0.426948	 -0.013392
H	 -1.631049	 1.344913	 0.747560
H	 -1.664587	 -0.001624	 1.849167
C	 0.737842	 -0.043159	 0.423759
H	 -0.806103	 -0.190518	 -1.063345
H	 -0.797221	 -1.503753	 0.074146
C	 1.796498	 -0.373278	 -0.626630
H	 0.759569	 1.018280	 0.651276
H	 0.981691	 -0.558813	 1.350309
C	 3.236953	 -0.081221	 -0.202788
H	 1.575640	 0.171610	 -1.541599
H	 1.719023	 -1.427675	 -0.877354
C	 3.555688	 1.398351	 -0.001743
H	 3.904749	 -0.480229	 -0.960162
H	 3.458634	 -0.624796	 0.711982
H	 3.337980	 1.968666	 -0.899196
H	 4.605559	 1.537356	 0.229965
H	 2.983993	 1.829990	 0.810943

13 10 7 11 F
