%nprocshared=1
%mem=2GB
#HF/6-31G* nosymm scf=tight 

Mol

0 1
O	 -0.279543	 0.701986	 -1.866684
C	 -0.775684	 0.932890	 -0.811791
C	 -1.631647	 2.131772	 -0.504618
O	 -0.632575	 0.154573	 0.251549
H	 -1.182779	 2.706436	 0.297395
H	 -1.728927	 2.743899	 -1.388741
H	 -2.609452	 1.806971	 -0.168228
C	 0.160891	 -1.019931	 0.106212
C	 1.589627	 -0.672828	 0.480843
H	 0.089836	 -1.367806	 -0.916050
H	 -0.238459	 -1.792301	 0.749618
C	 2.246377	 0.346236	 -0.452210
H	 2.163194	 -1.597435	 0.473358
H	 1.604769	 -0.303424	 1.502885
C	 3.691736	 0.652107	 -0.061850
H	 2.219579	 -0.032311	 -1.472055
H	 1.666466	 1.263317	 -0.447249
H	 4.134505	 1.377213	 -0.737283
H	 4.305508	 -0.243868	 -0.089969
H	 3.748266	 1.059562	 0.943567

16 12 9 8 F
12 9 8 10 F
1 2 4 8 F
