%nprocshared=4
%mem=2GB
#HF/cc-pVTZ nosymm scf=tight opt=ModRedundant

Mol

0 1
O	 -1.278239	 1.034789	 -0.784693
C	 -1.204115	 0.062668	 -0.112312
C	 -2.386398	 -0.667698	 0.460323
O	 -0.068058	 -0.518372	 0.226882
H	 -2.382952	 -1.693172	 0.114333
H	 -3.296656	 -0.175702	 0.158400
H	 -2.312537	 -0.685191	 1.540100
C	 1.169069	 0.037277	 -0.230911
C	 2.157421	 -1.110733	 -0.279371
C	 1.605356	 1.157676	 0.695894
H	 1.008693	 0.430570	 -1.223225
H	 1.807401	 -1.889067	 -0.945278
H	 3.117253	 -0.759050	 -0.638193
H	 2.296000	 -1.540108	 0.705702
H	 2.548170	 1.571424	 0.357643
H	 0.872914	 1.952670	 0.708631
H	 1.738279	 0.785551	 1.705417

8 4 2 1 F
