%nprocshared=4
%mem=2GB
#HF/cc-pVTZ nosymm scf=tight opt=ModRedundant

Mol

0 1
H	 0.078649	 -0.123066	 0.435311
N	 -0.625934	 -0.663929	 -0.000707
C	 -1.978635	 -0.158664	 0.001017
C	 -0.266538	 -1.836859	 -0.567852
H	 -2.519057	 -0.493535	 -0.876362
H	 -1.938890	 0.917202	 -0.004137
H	 -2.514266	 -0.485137	 0.884506
C	 1.205661	 -2.166466	 -0.454666
O	 -1.039046	 -2.561158	 -1.122556
H	 1.499547	 -2.232041	 0.586453
H	 1.391035	 -3.110422	 -0.940106
H	 1.804099	 -1.394834	 -0.924852

4 2 3 5 F
