%nprocshared=4
%mem=2GB
#HF/6-31G* nosymm scf=tight opt=ModRedundant

Mol

0 1
O	 0.141159	 -0.083912	 0.638996
C	 1.122059	 0.121804	 -0.000188
C	 1.347907	 1.308683	 -0.904736
O	 2.172624	 -0.688929	 0.000216
C	 0.167996	 2.274956	 -0.943052
H	 2.253298	 1.806091	 -0.567681
H	 1.573766	 0.923591	 -1.895416
C	 0.422749	 3.467316	 -1.866493
H	 -0.040309	 2.626297	 0.062768
H	 -0.720983	 1.742372	 -1.266430
C	 -0.754974	 4.439900	 -1.911812
H	 1.314946	 3.996928	 -1.538510
H	 0.633468	 3.109546	 -2.872310
H	 -0.968802	 4.841958	 -0.925769
H	 -0.548588	 5.275716	 -2.572942
H	 -1.654973	 3.948400	 -2.269679
C	 3.452279	 -0.082609	 0.000533
H	 3.583069	 0.529321	 -0.880332
H	 4.163299	 -0.894027	 0.001117
H	 3.582335	 0.529955	 0.881077

1 2 4 17 F
