%nprocshared=4
%mem=2GB
#HF/cc-pVTZ nosymm scf=tight opt=ModRedundant

Mol

0 1
O	 1.028578	 1.241952	 1.205164
C	 -0.087758	 1.214690	 0.812541
C	 -1.052635	 2.364031	 0.893032
O	 -0.637375	 0.157174	 0.243149
H	 -1.921090	 2.069887	 1.468346
H	 -0.569911	 3.209192	 1.355977
H	 -1.390494	 2.625703	 -0.101426
C	 0.162530	 -1.009518	 0.097799
C	 1.587210	 -0.664190	 0.477086
H	 0.096803	 -1.356267	 -0.924704
H	 -0.233803	 -1.785900	 0.736810
C	 2.256770	 0.342732	 -0.454344
H	 2.154716	 -1.590834	 0.479041
H	 1.598751	 -0.289614	 1.496104
C	 3.698146	 0.643205	 -0.057145
H	 2.235038	 -0.042575	 -1.470299
H	 1.683491	 1.262594	 -0.461300
H	 4.150202	 1.356548	 -0.736242
H	 4.305463	 -0.255904	 -0.069842
H	 3.749130	 1.061068	 0.942759

2 4 8 10 F
