%nprocshared=1
%mem=2GB
#HF/6-31G* nosymm scf=tight 

Mol

0 1
H	 -3.135461	 -1.215070	 0.001379
O	 -2.310168	 -0.871793	 -0.309793
C	 -2.026376	 0.340750	 0.341611
C	 -0.673256	 0.843270	 -0.132153
H	 -2.792215	 1.080697	 0.115987
H	 -2.013526	 0.200402	 1.421792
C	 0.486613	 -0.083066	 0.235839
H	 -0.715586	 0.970948	 -1.210718
H	 -0.508072	 1.829858	 0.297090
C	 0.020488	 -1.444884	 0.753520
H	 1.103760	 0.400582	 0.985991
H	 1.119571	 -0.229604	 -0.638651
C	 1.179621	 -2.372720	 1.115742
H	 -0.611151	 -1.300036	 1.627458
H	 -0.603961	 -1.924823	 0.002411
H	 1.803185	 -1.935342	 1.890182
H	 0.819402	 -3.329417	 1.481687
H	 1.811912	 -2.565332	 0.253408

14 10 7 11 F
2 3 4 8 F
1 2 3 4 F
