%nprocshared=4
%mem=2GB
#HF/cc-pVTZ nosymm scf=tight opt=ModRedundant

Mol

0 1
H	 0.559871	 -3.346639	 -0.734483
O	 0.921754	 -2.606501	 -0.270875
C	 0.116995	 -1.562917	 -0.451782
C	 0.626018	 -0.337582	 0.258241
O	 -0.869001	 -1.635093	 -1.100198
C	 -0.267326	 0.883135	 0.076490
H	 0.741926	 -0.606795	 1.301289
H	 1.628560	 -0.149021	 -0.112955
C	 -1.726822	 0.642622	 0.463839
H	 -0.210803	 1.217591	 -0.953497
H	 0.129920	 1.693110	 0.675679
C	 -2.240564	 -0.773082	 0.207146
H	 -2.342599	 1.340002	 -0.096280
H	 -1.869163	 0.891690	 1.513197
C	 -3.727062	 -0.924693	 0.513436
H	 -2.058499	 -1.035341	 -0.831655
H	 -1.684171	 -1.487867	 0.805031
H	 -4.066301	 -1.935967	 0.321279
H	 -4.322450	 -0.254007	 -0.096803
H	 -3.937135	 -0.697545	 1.553353

12 9 6 10 F
