%nprocshared=4
%mem=2GB
#HF/cc-pVTZ nosymm scf=tight opt=ModRedundant

Mol

0 1
H	 -0.174685	 -9.551759	 -1.823447
O	 0.603116	 -9.532383	 -2.349259
C	 0.270206	 -9.372635	 -3.703115
C	 -0.216535	 -7.972780	 -4.046878
H	 1.174137	 -9.587569	 -4.256914
H	 -0.472872	 -10.110006	 -4.000722
C	 0.656857	 -6.850695	 -3.490137
H	 -0.280288	 -7.884892	 -5.127327
H	 -1.227664	 -7.866562	 -3.661219
C	 0.599841	 -6.758120	 -1.965992
H	 0.344459	 -5.905512	 -3.921458
H	 1.688481	 -7.010127	 -3.799362
C	 1.513608	 -5.698082	 -1.348250
H	 -0.426003	 -6.571147	 -1.657915
H	 0.867772	 -7.725970	 -1.551326
C	 3.009841	 -5.968591	 -1.496077
H	 1.288170	 -4.741666	 -1.811904
H	 1.270932	 -5.585998	 -0.293878
C	 3.483501	 -7.168232	 -0.679428
H	 3.565283	 -5.085217	 -1.188498
H	 3.258013	 -6.135869	 -2.539836
C	 4.787405	 -7.768073	 -1.195101
H	 3.610487	 -6.868801	 0.357294
H	 2.710250	 -7.931867	 -0.682378
H	 5.589371	 -7.037552	 -1.174452
H	 5.096164	 -8.614511	 -0.592342
H	 4.682460	 -8.112344	 -2.218729

20 16 19 22 F
