%nprocshared=4
%mem=2GB
#HF/6-31G* nosymm scf=tight opt=ModRedundant

Mol

0 1
H	 2.395911	 -4.531722	 1.585838
O	 3.193254	 -4.354124	 1.108580
C	 2.901797	 -4.190043	 -0.256038
C	 2.200496	 -2.872327	 -0.566728
H	 3.855355	 -4.225942	 -0.767031
H	 2.307413	 -5.026441	 -0.621995
C	 0.815902	 -2.738524	 0.071914
H	 2.836478	 -2.056299	 -0.233574
H	 2.110160	 -2.783057	 -1.648040
C	 0.115918	 -1.429151	 -0.302766
H	 0.913314	 -2.801653	 1.152142
H	 0.192299	 -3.577803	 -0.236422
C	 -1.309753	 -1.282496	 0.241564
H	 0.719520	 -0.590125	 0.038624
H	 0.079591	 -1.354265	 -1.387557
C	 -2.037799	 -0.007733	 -0.193645
H	 -1.890610	 -2.142323	 -0.085726
H	 -1.285946	 -1.330893	 1.329189
C	 -3.489788	 0.042957	 0.286558
H	 -2.017067	 0.064384	 -1.280144
H	 -1.513726	 0.868678	 0.179924
C	 -4.216917	 1.317354	 -0.141063
H	 -4.025645	 -0.823308	 -0.095450
H	 -3.513059	 -0.038752	 1.371301
H	 -4.239342	 1.411634	 -1.223113
H	 -5.243387	 1.322503	 0.212445
H	 -3.726170	 2.201406	 0.256408

14 10 13 16 F
