%nprocshared=4
%mem=2GB
#HF/cc-pVTZ nosymm scf=tight opt=ModRedundant

Mol

0 1
H	 -2.644180	 -0.653737	 1.272255
C	 -2.092774	 -0.380414	 0.391915
O	 -0.808934	 -0.154049	 0.752536
F	 -2.163230	 -1.351640	 -0.507133
F	 -2.627232	 0.691260	 -0.169301
C	 0.158019	 -1.044194	 0.337873
C	 1.072063	 -1.314825	 1.530583
Cl	 1.099191	 -0.385529	 -1.013384
H	 -0.255847	 -1.982933	 0.013635
F	 2.008950	 -2.168911	 1.205310
F	 0.363428	 -1.842247	 2.500624
F	 1.634796	 -0.226787	 1.979756

6 3 2 4 F
