%nprocshared=1
%mem=2GB
#HF/6-31G* nosymm scf=tight 

Mol

0 1
H	 -2.547412	 -0.733849	 0.266986
O	 -2.264925	 -0.068557	 0.878521
C	 -1.142126	 0.597479	 0.365972
C	 0.103798	 -0.264583	 0.466915
H	 -1.292947	 0.902546	 -0.665796
H	 -1.010590	 1.492444	 0.957737
O	 1.171513	 0.459272	 -0.058250
H	 -0.038319	 -1.194659	 -0.086928
H	 0.281748	 -0.529009	 1.507586
C	 2.397842	 -0.198080	 -0.002151
H	 2.508049	 -0.905315	 -0.822092
H	 3.173794	 0.550865	 -0.078850
H	 2.517602	 -0.735921	 0.936026

8 4 3 5 F
1 2 3 5 F
10 7 4 8 F
