%nprocshared=4
%mem=2GB
#HF/cc-pVTZ nosymm scf=tight opt=ModRedundant

Mol

0 1
H	 1.651322	 -0.822465	 0.000000
O	 0.729993	 -1.034364	 0.000000
C	 0.037305	 0.100061	 0.000000
C	 -1.164416	 0.024911	 0.893474
O	 0.360035	 1.038691	 -0.641572
H	 -1.808162	 -0.781241	 0.566091
H	 -1.695407	 0.961877	 0.864021
H	 -0.849212	 -0.195698	 1.905129

4 3 2 1 F
