%nprocshared=1
%mem=2GB
#HF/6-31G* nosymm scf=tight 

Mol

0 1
H	 2.318191	 2.579916	 -0.551664
O	 3.107040	 2.180597	 -0.888314
C	 3.486103	 1.110058	 -0.061083
C	 2.582920	 -0.109891	 -0.205003
H	 4.495840	 0.854013	 -0.355271
H	 3.523710	 1.427908	 0.980231
C	 1.136012	 0.131954	 0.231846
H	 2.601768	 -0.432393	 -1.242791
H	 3.008849	 -0.918729	 0.386378
C	 0.268492	 -1.125477	 0.126517
H	 0.706071	 0.921516	 -0.378161
H	 1.123610	 0.489171	 1.261692
C	 -1.169155	 -0.960178	 0.632665
H	 0.249135	 -1.461356	 -0.908692
H	 0.743869	 -1.922459	 0.694441
C	 -2.037799	 -0.007733	 -0.193645
H	 -1.642433	 -1.939826	 0.643309
H	 -1.149166	 -0.623582	 1.668107
C	 -3.489788	 0.042957	 0.286558
H	 -2.016347	 -0.316840	 -1.237725
H	 -1.623251	 0.997066	 -0.164800
C	 -4.216917	 1.317354	 -0.141063
H	 -4.025645	 -0.823308	 -0.095450
H	 -3.513059	 -0.038752	 1.371301
H	 -4.239342	 1.411634	 -1.223113
H	 -5.243387	 1.322503	 0.212445
H	 -3.726170	 2.201406	 0.256408

14 10 7 4 F
14 10 13 16 F
10 7 4 8 F
8 4 3 2 F
10 13 16 20 F
4 3 2 1 F
