%nprocshared=4
%mem=2GB
#HF/cc-pVTZ nosymm scf=tight opt=ModRedundant

Mol

0 1
H	 -3.436473	 1.252944	 -1.023892
O	 -3.458596	 0.315260	 -0.960865
C	 -3.176635	 -0.080824	 0.355601
C	 -1.763371	 0.265266	 0.799691
H	 -3.321825	 -1.153438	 0.379502
H	 -3.895468	 0.357385	 1.043382
C	 -0.673390	 -0.426948	 -0.013392
H	 -1.631049	 1.344913	 0.747560
H	 -1.664587	 -0.001624	 1.849167
C	 0.468986	 -0.962320	 0.845866
H	 -0.281327	 0.266616	 -0.749034
H	 -1.117141	 -1.246415	 -0.573808
C	 -0.018587	 -1.754080	 2.057657
H	 1.110954	 -1.584833	 0.230038
H	 1.084529	 -0.132211	 1.186281
C	 -0.758108	 -0.927887	 3.111395
H	 0.827870	 -2.252992	 2.523969
H	 -0.681014	 -2.543155	 1.712446
C	 0.104223	 0.104339	 3.833916
H	 -1.176563	 -1.607055	 3.847875
H	 -1.603976	 -0.428244	 2.646331
H	 0.962012	 -0.365945	 4.304136
H	 -0.463880	 0.604043	 4.610317
H	 0.473979	 0.867654	 3.159946

11 7 4 3 F
