%nprocshared=4
%mem=2GB
#HF/cc-pVTZ nosymm scf=tight opt=ModRedundant

Mol

0 1
H	 -3.436473	 1.252944	 -1.023892
O	 -3.458596	 0.315260	 -0.960865
C	 -3.176635	 -0.080824	 0.355601
C	 -1.763371	 0.265266	 0.799691
H	 -3.321825	 -1.153438	 0.379502
H	 -3.895468	 0.357385	 1.043382
C	 -0.673390	 -0.426948	 -0.013392
H	 -1.631049	 1.344913	 0.747560
H	 -1.664587	 -0.001624	 1.849167
C	 -0.472169	 -1.889696	 0.373714
H	 0.259371	 0.112924	 0.106646
H	 -0.927037	 -0.365373	 -1.069033
C	 0.616580	 -2.578014	 -0.447195
H	 -0.229817	 -1.944088	 1.430689
H	 -1.408757	 -2.428852	 0.247340
C	 0.800678	 -4.067568	 -0.151926
H	 1.561955	 -2.063273	 -0.291771
H	 0.380445	 -2.463201	 -1.501557
C	 1.324983	 -4.380922	 1.247380
H	 1.491583	 -4.478843	 -0.881501
H	 -0.143745	 -4.582981	 -0.306312
H	 2.266538	 -3.873752	 1.432661
H	 1.495715	 -5.445051	 1.364521
H	 0.628382	 -4.077011	 2.019384

11 7 4 3 F
