%nprocshared=4
%mem=2GB
#HF/6-31G* nosymm scf=tight opt=ModRedundant

Mol

0 1
O	 -0.130041	 1.650597	 -3.870740
C	 -0.621500	 1.398273	 -2.812802
C	 -0.183291	 0.178018	 -2.022070
C	 -1.674338	 2.290139	 -2.193542
C	 1.143478	 0.444852	 -1.292943
H	 -0.052790	 -0.638892	 -2.723448
H	 -0.948816	 -0.109161	 -1.306860
C	 1.631333	 -0.777471	 -0.511575
H	 1.879643	 0.745741	 -2.029769
H	 1.023177	 1.283012	 -0.608281
C	 2.915987	 -0.544314	 0.291766
H	 1.784363	 -1.605486	 -1.201284
H	 0.846570	 -1.092055	 0.173285
C	 3.373361	 0.914346	 0.347591
H	 3.708709	 -1.142521	 -0.150311
H	 2.780642	 -0.921148	 1.303579
H	 3.506512	 1.320010	 -0.651625
H	 4.322697	 0.999599	 0.867103
H	 2.660624	 1.545032	 0.868198
H	 -2.620064	 1.757065	 -2.141587
H	 -1.798551	 3.184351	 -2.788302
H	 -1.401677	 2.557994	 -1.176825

12 8 11 15 F
