%nprocshared=4
%mem=2GB
#HF/6-31G* nosymm scf=tight opt=ModRedundant

Mol

0 1
O	 3.221680	 1.124933	 -0.106960
C	 2.701189	 0.057885	 -0.047330
C	 1.251348	 -0.232511	 -0.351341
O	 3.347903	 -1.046386	 0.304773
C	 0.467000	 1.007716	 -0.774127
H	 1.234428	 -1.004096	 -1.113942
H	 0.819082	 -0.684442	 0.537817
C	 -1.028871	 0.749818	 -0.984724
H	 0.901553	 1.414517	 -1.682310
H	 0.592213	 1.771579	 -0.014353
C	 -1.365518	 -0.173255	 -2.159337
H	 -1.516549	 1.708488	 -1.145484
H	 -1.458763	 0.342582	 -0.070743
C	 -2.870957	 -0.310900	 -2.395360
H	 -0.893659	 0.210619	 -3.062558
H	 -0.944672	 -1.162022	 -1.991405
C	 -3.219336	 -1.235167	 -3.563475
H	 -3.298039	 0.673789	 -2.577632
H	 -3.344869	 -0.684574	 -1.489008
C	 -4.724494	 -1.364174	 -3.794899
H	 -2.745734	 -0.863777	 -4.469793
H	 -2.796992	 -2.221134	 -3.381060
H	 -4.939445	 -2.025300	 -4.628755
H	 -5.171491	 -0.398723	 -4.014661
H	 -5.223120	 -1.765960	 -2.917281
C	 4.728119	 -1.109107	 -0.004993
H	 4.882018	 -1.033965	 -1.071845
H	 5.068212	 -2.067527	 0.355250
H	 5.265056	 -0.311663	 0.488280

1 2 4 26 F
