%nprocshared=1
%mem=2GB
#HF/6-31G* nosymm scf=tight 

Mol

0 1
H	 3.908541	 -3.025906	 -1.028046
C	 3.544111	 -2.186852	 -1.612597
C	 2.156100	 -1.749967	 -1.145978
H	 4.261208	 -1.377512	 -1.512180
H	 3.531565	 -2.490969	 -2.655744
C	 1.609034	 -0.571691	 -1.954802
H	 2.199896	 -1.478806	 -0.096142
H	 1.468886	 -2.590852	 -1.225607
C	 0.212854	 -0.123495	 -1.522290
H	 2.288788	 0.269481	 -1.877282
H	 1.568342	 -0.850362	 -3.005387
C	 0.169600	 0.576866	 -0.172154
H	 -0.188774	 0.580488	 -2.249527
H	 -0.479119	 -0.962694	 -1.512587
C	 -1.181045	 0.701995	 0.511084
O	 1.154146	 1.030239	 0.329371
C	 -2.285934	 -0.139295	 -0.145128
H	 -1.449051	 1.751551	 0.493206
H	 -1.071135	 0.403303	 1.551943
C	 -3.651768	 0.085446	 0.506485
H	 -2.346596	 0.110469	 -1.202272
H	 -2.034737	 -1.195320	 -0.088721
C	 -4.759797	 -0.746382	 -0.137905
H	 -3.908762	 1.140117	 0.445781
H	 -3.588286	 -0.154158	 1.565709
H	 -4.868882	 -0.505166	 -1.191300
H	 -4.548009	 -1.809175	 -0.062213
H	 -5.715422	 -0.564821	 0.343442

10 6 3 2 F
12 15 17 21 F
