%nprocshared=4
%mem=2GB
#HF/cc-pVTZ nosymm scf=tight opt=ModRedundant

Mol

0 1
H	 -3.144994	 -1.202467	 -0.018751
O	 -2.321472	 -0.864941	 -0.318626
C	 -2.021813	 0.336996	 0.342658
C	 -0.669613	 0.837286	 -0.127252
H	 -2.780861	 1.084746	 0.127159
H	 -2.006390	 0.184138	 1.420053
C	 0.490865	 -0.082543	 0.241244
H	 -0.708709	 0.967192	 -1.204587
H	 -0.507562	 1.822272	 0.303070
C	 0.095434	 -1.555830	 0.282048
H	 0.887831	 0.213465	 1.205534
H	 1.295951	 0.052081	 -0.478364
C	 1.256476	 -2.476545	 0.642674
H	 -0.707158	 -1.691014	 1.001960
H	 -0.309494	 -1.848959	 -0.683248
H	 1.660437	 -2.231040	 1.619127
H	 0.943568	 -3.514273	 0.665325
H	 2.063022	 -2.390218	 -0.078073

10 7 4 8 F
