%nprocshared=4
%mem=2GB
#HF/cc-pVTZ nosymm scf=tight opt=ModRedundant

Mol

0 1
H	 -0.000342	 -0.223902	 -3.352295
C	 -0.027146	 0.371068	 -2.446756
C	 0.024493	 -0.518541	 -1.216015
H	 -0.932586	 0.964979	 -2.449855
H	 0.819708	 1.049865	 -2.473332
N	 -0.042516	 0.263377	 -0.000000
H	 -0.822211	 -1.197105	 -1.225584
H	 0.921114	 -1.142847	 -1.255206
C	 0.024493	 -0.518541	 1.216015
H	 0.682568	 0.950412	 -0.000000
C	 -0.781201	 -1.800808	 1.091755
H	 1.065442	 -0.763012	 1.400693
H	 -0.319739	 0.044936	 2.087348
H	 -0.424192	 -2.396069	 0.260629
H	 -0.706177	 -2.391034	 1.997688
H	 -1.832224	 -1.586518	 0.924229

12 9 6 3 F
