%nprocshared=1
%mem=2GB
#HF/6-31G* nosymm scf=tight opt=ModRedundant

Mol

0 1
H	 -1.595227	 0.512332	 -2.246222
C	 -1.221144	 -0.377893	 -1.744524
O	 -1.392607	 -0.295399	 -0.366433
H	 -1.779623	 -1.236161	 -2.091828
H	 -0.173163	 -0.509283	 -2.010794
C	 -0.719715	 0.768384	 0.229244
C	 0.719720	 0.768376	 -0.229267
H	 -1.185038	 1.714362	 -0.050570
H	 -0.750528	 0.687237	 1.313896
O	 1.392611	 -0.295398	 0.366430
H	 0.750534	 0.687200	 -1.313918
H	 1.185043	 1.714359	 0.050526
C	 2.706965	 -0.449871	 -0.062409
H	 2.756559	 -0.644779	 -1.131878
H	 3.305899	 0.433456	 0.155466
H	 3.125548	 -1.294566	 0.467107

2 3 6 7 F
