%nprocshared=4
%mem=2GB
#HF/cc-pVTZ nosymm scf=tight opt=ModRedundant

Mol

0 1
O	 -2.440701	 -0.934798	 -0.415053
C	 -1.922978	 0.063265	 -0.045005
C	 -2.632749	 1.372204	 0.158357
O	 -0.637375	 0.157174	 0.243149
H	 -2.187724	 2.129143	 -0.474664
H	 -3.677681	 1.257276	 -0.079438
H	 -2.516788	 1.693160	 1.185542
C	 0.162530	 -1.009518	 0.097799
C	 1.587210	 -0.664190	 0.477086
H	 0.096803	 -1.356267	 -0.924704
H	 -0.233803	 -1.785900	 0.736810
C	 2.507419	 -0.407007	 -0.713223
H	 1.975035	 -1.492228	 1.064180
H	 1.576723	 0.202958	 1.130373
C	 3.938751	 -0.090892	 -0.292537
H	 2.505709	 -1.280329	 -1.360066
H	 2.113150	 0.413266	 -1.301906
H	 4.570526	 0.083118	 -1.155651
H	 4.371849	 -0.908230	 0.274717
H	 3.976423	 0.797640	 0.328839

12 9 8 10 F
