%nprocshared=4
%mem=2GB
#HF/6-31G* nosymm scf=tight opt=ModRedundant

Mol

0 1
H	 -4.290000	 -0.260530	 -0.758955
C	 -3.444100	 -0.331901	 -0.103197
C	 -2.272853	 -0.682576	 -0.581954
H	 -3.582098	 -0.111544	 0.938586
O	 -1.180634	 -0.819263	 0.215062
H	 -2.112147	 -0.900394	 -1.623071
C	 0.051604	 -1.018856	 -0.387932
C	 1.043764	 0.054862	 -0.001873
H	 -0.017620	 -1.041351	 -1.469781
H	 0.437898	 -1.966374	 -0.042284
F	 2.212596	 -0.199467	 -0.571921
F	 0.652529	 1.252447	 -0.405055
F	 1.230877	 0.110694	 1.300533

3 5 7 9 F
