%nprocshared=4
%mem=2GB
#HF/cc-pVTZ nosymm scf=tight opt=ModRedundant

Mol

0 1
H	 -2.498963	 -0.741158	 -0.729149
O	 -2.346257	 -0.289210	 0.080372
C	 -1.183935	 0.486039	 -0.009831
C	 0.062853	 -0.375310	 0.027457
H	 -1.178881	 1.094526	 -0.908634
H	 -1.184406	 1.155156	 0.838676
O	 1.171890	 0.462025	 0.046361
H	 0.090855	 -1.027582	 -0.846988
H	 0.038299	 -1.012365	 0.909008
C	 2.393906	 -0.196430	 0.112202
H	 2.542234	 -0.845909	 -0.747711
H	 3.172986	 0.551655	 0.121653
H	 2.473287	 -0.797281	 1.015085

8 4 3 5 F
