%nprocshared=4
%mem=2GB
#HF/cc-pVTZ nosymm scf=tight opt=ModRedundant

Mol

0 1
H	 2.614283	 2.028610	 0.296620
O	 3.358864	 1.662087	 -0.142800
C	 3.565468	 0.338079	 0.273842
C	 2.533667	 -0.637565	 -0.272227
H	 4.548038	 0.064914	 -0.086598
H	 3.593945	 0.282242	 1.360360
C	 1.114816	 -0.402372	 0.240993
H	 2.544552	 -0.580764	 -1.356576
H	 2.850574	 -1.642962	 -0.005497
C	 0.113298	 -1.420414	 -0.302504
H	 0.796373	 0.598427	 -0.031033
H	 1.113377	 -0.446476	 1.328807
C	 0.400610	 -1.915808	 -1.721056
H	 0.067750	 -2.271634	 0.372461
H	 -0.876150	 -0.971757	 -0.289509
C	 1.665553	 -2.759750	 -1.867418
H	 -0.448618	 -2.505805	 -2.054588
H	 0.457448	 -1.063067	 -2.393930
C	 1.855175	 -3.312160	 -3.277843
H	 1.627483	 -3.586901	 -1.161840
H	 2.539326	 -2.172705	 -1.601145
C	 3.119150	 -4.152152	 -3.428421
H	 0.990305	 -3.912099	 -3.547381
H	 1.884926	 -2.487453	 -3.984975
H	 3.105266	 -5.004014	 -2.756576
H	 3.221686	 -4.530368	 -4.439137
H	 4.006083	 -3.569426	 -3.202297

14 10 7 4 F
