%nprocshared=4
%mem=2GB
#HF/cc-pVTZ nosymm scf=tight opt=ModRedundant

Mol

0 1
H	 0.559871	 -3.346639	 -0.734483
O	 0.921754	 -2.606501	 -0.270875
C	 0.116995	 -1.562917	 -0.451782
C	 0.626018	 -0.337582	 0.258241
O	 -0.869001	 -1.635093	 -1.100198
C	 -0.267326	 0.883135	 0.076490
H	 0.741926	 -0.606795	 1.301289
H	 1.628560	 -0.149021	 -0.112955
C	 -1.726822	 0.642622	 0.463839
H	 -0.210803	 1.217591	 -0.953497
H	 0.129920	 1.693110	 0.675679
C	 -2.756516	 1.138285	 -0.550108
H	 -1.909283	 1.139600	 1.411982
H	 -1.883529	 -0.418444	 0.645577
C	 -4.191904	 0.966881	 -0.063531
H	 -2.571205	 2.187931	 -0.762092
H	 -2.639518	 0.610909	 -1.491459
H	 -4.901463	 1.327591	 -0.799125
H	 -4.361007	 1.515682	 0.856751
H	 -4.417390	 -0.076737	 0.129269

12 9 6 10 F
