%nprocshared=1
%mem=2GB
#HF/6-31G* nosymm scf=tight opt=ModRedundant

Mol

0 1
H	 -2.009186	 0.885615	 -4.201575
C	 -1.350972	 0.773307	 -3.358411
C	 -1.315688	 1.749583	 -2.374141
C	 -0.540837	 -0.346875	 -3.259384
H	 -1.944501	 2.617843	 -2.452158
C	 -0.469097	 1.604476	 -1.290300
H	 -0.569548	 -1.102621	 -4.023340
C	 0.307397	 -0.494248	 -2.175338
H	 -0.428581	 2.349806	 -0.519253
C	 0.345096	 0.482433	 -1.187191
H	 0.936049	 -1.359469	 -2.094651
C	 1.239129	 0.373821	 0.000060
O	 1.970282	 -0.730723	 0.000018
O	 1.298197	 1.190016	 0.865621
C	 3.377318	 -0.566646	 -0.000065
H	 3.695437	 -0.028981	 -0.881264
H	 3.789299	 -1.563704	 0.000236
H	 3.695516	 -0.028316	 0.880770

10 12 13 15 F
