%nprocshared=4
%mem=2GB
#HF/cc-pVTZ nosymm scf=tight opt=ModRedundant

Mol

0 1
O	 0.712424	 2.100784	 0.222809
C	 -0.342784	 2.439417	 0.638652
C	 -1.598817	 1.606626	 0.621242
O	 -0.559170	 3.624106	 1.186434
C	 -1.413045	 0.229353	 0.001137
H	 -1.948650	 1.532464	 1.645741
H	 -2.354749	 2.177338	 0.091792
C	 -2.702562	 -0.586401	 0.000228
H	 -0.640439	 -0.305623	 0.541897
H	 -1.047575	 0.339771	 -1.013646
C	 -3.953810	 0.284959	 -0.000782
H	 -2.717793	 -1.238567	 -0.869075
H	 -2.719108	 -1.238472	 0.869576
H	 -3.983727	 0.924403	 -0.876454
H	 -4.852989	 -0.320147	 -0.001515
H	 -3.985140	 0.924399	 0.874841
C	 0.537799	 4.511419	 1.268015
H	 1.331146	 4.083333	 1.862633
H	 0.162475	 5.406313	 1.737231
H	 0.918707	 4.738425	 0.283332

9 5 8 12 F
