%nprocshared=4
%mem=2GB
#HF/cc-pVTZ nosymm scf=tight opt=ModRedundant

Mol

0 1
O	 2.868453	 1.353349	 -0.000734
C	 2.841259	 0.166180	 -0.000295
C	 1.542794	 -0.614730	 -0.000853
C	 4.113372	 -0.651103	 0.000743
C	 0.288398	 0.247429	 0.000314
H	 1.557171	 -1.273139	 -0.866508
H	 1.557484	 -1.274998	 0.863344
C	 0.533635	 1.640710	 -0.572171
H	 -0.087650	 0.326511	 1.013945
H	 -0.487440	 -0.253036	 -0.567793
C	 -0.716504	 2.515618	 -0.576452
H	 1.314514	 2.135713	 0.000955
H	 0.912498	 1.553541	 -1.588107
C	 -0.479318	 3.910874	 -1.147188
H	 -1.095821	 2.603544	 0.438684
H	 -1.497400	 2.022021	 -1.149767
C	 -1.733033	 4.779198	 -1.148063
H	 0.300274	 4.405459	 -0.573986
H	 -0.101358	 3.823986	 -2.162331
H	 -2.116288	 4.913927	 -0.142078
H	 -1.530510	 5.761696	 -1.558798
H	 -2.520782	 4.328301	 -1.742358
H	 4.145311	 -1.294584	 -0.871587
H	 4.970080	 0.004978	 -0.000091
H	 4.145223	 -1.291980	 0.874988

9 5 3 6 F
