%nprocshared=4
%mem=2GB
#HF/6-31G* nosymm scf=tight opt=ModRedundant

Mol

0 1
H	 1.085764	 0.881738	 -4.098891
O	 2.023023	 0.781113	 -4.018323
C	 2.515015	 1.680543	 -3.057581
C	 2.161057	 1.286093	 -1.627948
H	 3.590461	 1.683185	 -3.180390
H	 2.163542	 2.690444	 -3.265778
C	 0.659120	 1.296839	 -1.333097
H	 2.564036	 0.295513	 -1.433721
H	 2.667313	 1.972795	 -0.951551
C	 0.340002	 0.949440	 0.123713
H	 0.160836	 0.591115	 -1.991909
H	 0.252062	 2.281660	 -1.562820
C	 -1.145510	 1.029194	 0.494164
H	 0.712516	 -0.049471	 0.343392
H	 0.892896	 1.627615	 0.770310
C	 -2.037799	 -0.007733	 -0.193645
H	 -1.236245	 0.904682	 1.571234
H	 -1.517763	 2.028508	 0.273627
C	 -3.489788	 0.042957	 0.286558
H	 -1.635435	 -1.003601	 -0.013470
H	 -2.019080	 0.138103	 -1.270995
C	 -4.216917	 1.317354	 -0.141063
H	 -4.025645	 -0.823308	 -0.095450
H	 -3.513059	 -0.038752	 1.371301
H	 -4.239342	 1.411634	 -1.223113
H	 -5.243387	 1.322503	 0.212445
H	 -3.726170	 2.201406	 0.256408

20 16 19 22 F
