%nprocshared=4
%mem=2GB
#HF/cc-pVTZ nosymm scf=tight opt=ModRedundant

Mol

0 1
H	 3.060126	 -3.042166	 -2.684572
C	 2.953775	 -1.969658	 -2.799825
C	 1.659601	 -1.472617	 -2.164696
H	 3.816986	 -1.500443	 -2.340565
H	 2.981775	 -1.746643	 -3.861560
C	 1.470306	 0.034979	 -2.317314
H	 1.654720	 -1.732842	 -1.112462
H	 0.816068	 -1.987205	 -2.619091
C	 0.179823	 0.560351	 -1.696406
H	 2.311500	 0.552586	 -1.873125
H	 1.466754	 0.286123	 -3.374053
C	 0.166485	 0.574257	 -0.177158
H	 0.011898	 1.587836	 -2.009202
H	 -0.679553	 0.000360	 -2.053338
C	 -1.180025	 0.697761	 0.509157
O	 1.170493	 0.512207	 0.456398
C	 -2.285431	 -0.137488	 -0.145671
H	 -1.447360	 1.745713	 0.496200
H	 -1.065514	 0.394096	 1.546399
C	 -3.646545	 0.082747	 0.508954
H	 -2.348635	 0.118247	 -1.199806
H	 -2.034895	 -1.192387	 -0.096473
C	 -4.757412	 -0.737227	 -0.138149
H	 -3.900211	 1.137405	 0.459735
H	 -3.580878	 -0.166775	 1.564416
H	 -4.867876	 -0.486707	 -1.187777
H	 -4.549650	 -1.800049	 -0.072540
H	 -5.709585	 -0.556397	 0.346597

16 12 15 17 F
