%nprocshared=4
%mem=2GB
#HF/6-31G* nosymm scf=tight opt=ModRedundant

Mol

0 1
O	 2.862325	 1.357334	 0.000267
C	 2.843464	 0.164689	 -0.000222
C	 1.546494	 -0.624492	 -0.000609
C	 4.124123	 -0.644674	 -0.000428
C	 0.291004	 0.242674	 0.000989
H	 1.557904	 -1.283758	 -0.867573
H	 1.558622	 -1.285963	 0.864672
C	 -0.386811	 0.295481	 -1.369245
H	 0.552016	 1.245912	 0.322727
H	 -0.403996	 -0.138926	 0.742275
C	 -1.646312	 1.163395	 -1.379935
H	 0.316780	 0.675753	 -2.108434
H	 -0.644414	 -0.713980	 -1.686570
C	 -2.329985	 1.221354	 -2.747138
H	 -1.389854	 2.172927	 -1.063559
H	 -2.350742	 0.783660	 -0.641980
C	 -3.587162	 2.090367	 -2.749870
H	 -1.627172	 1.601918	 -3.485413
H	 -2.588183	 0.212924	 -3.063779
H	 -3.356420	 3.114358	 -2.469959
H	 -4.048679	 2.112195	 -3.732329
H	 -4.324717	 1.714873	 -2.046193
H	 4.165367	 -1.288615	 -0.874074
H	 4.976217	 0.020734	 -0.001915
H	 4.166763	 -1.286207	 0.874930

9 5 3 6 F
