%nprocshared=4
%mem=2GB
#HF/6-31G* nosymm scf=tight opt=ModRedundant

Mol

0 1
H	 -0.442650	 3.344560	 2.046343
O	 -0.364373	 3.497236	 1.115241
C	 -0.248506	 2.271243	 0.444045
C	 1.132049	 1.667840	 0.632828
H	 -1.004841	 1.562529	 0.769683
H	 -0.414696	 2.470733	 -0.605257
O	 1.171513	 0.459272	 -0.058250
H	 1.329411	 1.508977	 1.694803
H	 1.886568	 2.358490	 0.260958
C	 2.397842	 -0.198080	 -0.002151
H	 2.508049	 -0.905315	 -0.822092
H	 3.173794	 0.550865	 -0.078850
H	 2.517602	 -0.735921	 0.936026

4 7 10 13 F
