%nprocshared=4
%mem=2GB
#HF/cc-pVTZ nosymm scf=tight opt=ModRedundant

Mol

0 1
O	 0.623971	 1.347241	 -0.000777
C	 0.485107	 0.171416	 -0.000134
C	 1.606966	 -0.836201	 0.000174
O	 -0.695554	 -0.422406	 0.000602
C	 2.988788	 -0.202529	 -0.000115
H	 1.465110	 -1.474645	 -0.864821
H	 1.465209	 -1.474077	 0.865596
H	 3.131767	 0.419673	 -0.873407
H	 3.750876	 -0.972315	 0.000098
H	 3.131883	 0.420264	 0.872742
C	 -0.731846	 -1.825887	 -0.216679
C	 -2.177105	 -2.263349	 -0.168305
H	 -0.142987	 -2.316432	 0.545527
H	 -0.282171	 -2.046651	 -1.174478
H	 -2.616915	 -2.036363	 0.794720
H	 -2.240971	 -3.332805	 -0.330835
H	 -2.756890	 -1.765114	 -0.935104

11 4 2 3 F
