%nprocshared=4
%mem=2GB
#HF/cc-pVTZ nosymm scf=tight opt=ModRedundant

Mol

0 1
O	 0.749630	 1.305591	 -0.000460
C	 0.576499	 0.134701	 -0.003900
C	 -0.765656	 -0.550508	 -0.002152
O	 1.564816	 -0.744612	 -0.000631
C	 -1.945526	 0.411052	 0.000603
H	 -0.794329	 -1.203792	 -0.868145
H	 -0.791555	 -1.205429	 0.862701
C	 -3.246172	 -0.275033	 -0.402549
H	 -1.737525	 1.233765	 -0.672652
H	 -2.048308	 0.847602	 0.986625
H	 -3.178556	 -0.693639	 -1.401302
H	 -4.071593	 0.426447	 -0.394369
H	 -3.493334	 -1.083611	 0.277481
C	 2.884339	 -0.237801	 0.002883
H	 3.064150	 0.362814	 -0.876312
H	 3.533055	 -1.098529	 0.004958
H	 3.059365	 0.363432	 0.882614

9 5 3 6 F
