%nprocshared=4
%mem=2GB
#HF/cc-pVTZ nosymm scf=tight opt=ModRedundant

Mol

0 1
H	 -1.089882	 -0.814560	 0.860190
N	 -0.625934	 -0.663929	 -0.000707
C	 -1.153745	 -1.299315	 -1.185104
C	 0.468494	 0.129045	 -0.002160
H	 -1.154170	 -2.377664	 -1.079502
H	 -0.529593	 -1.031543	 -2.020464
H	 -2.166380	 -0.969432	 -1.384565
C	 1.785715	 -0.615093	 0.000603
O	 0.413285	 1.323206	 0.000532
H	 1.866994	 -1.243310	 -0.878792
H	 2.591506	 0.100263	 0.006422
H	 1.860358	 -1.250360	 0.875522

3 2 4 9 F
