%nprocshared=1
%mem=2GB
#HF/6-31G* nosymm scf=tight opt=ModRedundant

Mol

0 1
H	 3.893188	 0.355400	 -0.101367
N	 3.092854	 -0.246221	 -0.068770
C	 1.865559	 0.531981	 0.018834
H	 3.199514	 -0.826043	 0.741946
C	 0.645745	 -0.382037	 -0.029944
H	 1.841966	 1.207024	 -0.831236
H	 1.815756	 1.155410	 0.915079
C	 -0.679275	 0.379305	 0.025956
H	 0.698998	 -0.976915	 -0.937203
H	 0.693479	 -1.083846	 0.802235
C	 -1.704436	 -0.263147	 0.962264
H	 -1.101380	 0.442857	 -0.975861
H	 -0.497412	 1.404495	 0.344953
C	 -3.028338	 0.498647	 1.011889
H	 -1.888708	 -1.287072	 0.644718
H	 -1.286397	 -0.325619	 1.964759
H	 -3.488796	 0.548899	 0.029153
H	 -3.733869	 0.018722	 1.683083
H	 -2.881906	 1.517515	 1.359535

12 8 5 9 F
