%nprocshared=4
%mem=2GB
#HF/cc-pVTZ nosymm scf=tight opt=ModRedundant

Mol

0 1
H	 -8.447526	 1.702946	 -0.330902
C	 -7.695058	 1.036781	 -0.774638
C	 -6.569776	 0.649635	 0.146096
O	 -7.803098	 0.688381	 -1.899027
C	 -5.193675	 0.774457	 -0.514541
H	 -6.637330	 1.250093	 1.043994
H	 -6.739705	 -0.388148	 0.424368
C	 -4.789956	 2.214817	 -0.822038
H	 -4.456179	 0.325819	 0.142090
H	 -5.179345	 0.187674	 -1.429786
C	 -5.641798	 2.853761	 -1.915610
H	 -3.744938	 2.234414	 -1.119799
H	 -4.855893	 2.816335	 0.080877
C	 -6.900381	 3.527547	 -1.372262
H	 -5.037082	 3.575553	 -2.455684
H	 -5.927719	 2.092630	 -2.638262
C	 -7.827821	 4.111512	 -2.439380
H	 -6.614724	 4.314215	 -0.677756
H	 -7.459838	 2.800038	 -0.790848
C	 -7.244121	 5.287623	 -3.218572
H	 -8.743922	 4.435874	 -1.955707
H	 -8.114795	 3.326049	 -3.133643
H	 -6.941812	 6.086551	 -2.549005
H	 -6.377675	 4.999038	 -3.801388
H	 -7.976863	 5.694192	 -3.906144

12 8 11 14 F
