%nprocshared=4
%mem=2GB
#HF/cc-pVTZ nosymm scf=tight opt=ModRedundant

Mol

0 1
H	 1.597384	 1.422011	 -2.163896
C	 0.870819	 1.247184	 -1.381068
C	 1.322304	 0.099773	 -0.484271
H	 0.761288	 2.167488	 -0.818562
H	 -0.079794	 1.027531	 -1.853750
C	 0.308557	 -0.162619	 0.622645
H	 2.280062	 0.331948	 -0.035353
H	 1.445783	 -0.803745	 -1.068520
N	 -1.069352	 -0.004081	 0.085342
H	 0.371632	 -1.172932	 0.991288
H	 0.400391	 0.548875	 1.426218
O	 -1.584901	 -0.965470	 -0.377818
O	 -1.548033	 1.079343	 0.130056

7 3 6 9 F
