%nprocshared=4
%mem=2GB
#HF/cc-pVTZ nosymm scf=tight opt=ModRedundant

Mol

0 1
O	 -2.374409	 1.338660	 -0.336961
C	 -2.104891	 0.204655	 -0.107126
C	 -0.881910	 -0.448129	 -0.720509
C	 -2.949910	 -0.638219	 0.818225
C	 -0.612237	 -1.818126	 -0.085506
H	 -0.037843	 0.206495	 -0.544076
H	 -1.011165	 -0.557255	 -1.792073
C	 0.624128	 -2.495919	 -0.672450
H	 -0.498690	 -1.680964	 0.982446
H	 -1.474840	 -2.464508	 -0.228351
C	 0.908015	 -3.892471	 -0.116611
H	 1.491088	 -1.861044	 -0.507242
H	 0.502861	 -2.570752	 -1.749621
C	 1.290952	 -3.924695	 1.360955
H	 1.714663	 -4.331755	 -0.695106
H	 0.040171	 -4.526368	 -0.278954
H	 2.153077	 -3.294343	 1.553274
H	 1.544383	 -4.932477	 1.669044
H	 0.483958	 -3.583665	 1.997931
H	 -3.440322	 -1.417144	 0.243099
H	 -3.694377	 -0.025850	 1.303346
H	 -2.331085	 -1.129829	 1.560495

6 3 2 1 F
