%nprocshared=1
%mem=2GB
#HF/6-31G* nosymm scf=tight opt=ModRedundant

Mol

0 1
O	 2.862325	 1.357334	 0.000267
C	 2.843464	 0.164689	 -0.000222
C	 1.546494	 -0.624492	 -0.000609
C	 4.124123	 -0.644674	 -0.000428
C	 0.291004	 0.242674	 0.000989
H	 1.557904	 -1.283758	 -0.867573
H	 1.558622	 -1.285963	 0.864672
C	 0.530785	 1.620317	 0.620962
H	 -0.496876	 -0.273084	 0.540775
H	 -0.066169	 0.353425	 -1.017986
C	 -0.721794	 2.498217	 0.629190
H	 0.892095	 1.501788	 1.641478
H	 1.323114	 2.131374	 0.075891
C	 -0.490040	 3.877879	 1.247926
H	 -1.514300	 1.988630	 1.174420
H	 -1.083371	 2.618107	 -0.390558
C	 -1.745848	 4.748860	 1.252740
H	 -0.129719	 3.759342	 2.267701
H	 0.300918	 4.388848	 0.702807
H	 -2.545593	 4.280375	 1.819378
H	 -1.550130	 5.719608	 1.697761
H	 -2.111257	 4.915320	 0.243329
H	 4.165367	 -1.288615	 -0.874074
H	 4.976217	 0.020734	 -0.001915
H	 4.166763	 -1.286207	 0.874930

9 5 3 6 F
