%nprocshared=4
%mem=2GB
#HF/cc-pVTZ nosymm scf=tight opt=ModRedundant

Mol

0 1
H	 2.614283	 2.028610	 0.296620
O	 3.358864	 1.662087	 -0.142800
C	 3.565468	 0.338079	 0.273842
C	 2.276657	 -0.452334	 0.443848
H	 4.173303	 -0.121674	 -0.493714
H	 4.141500	 0.316268	 1.196968
C	 1.373203	 0.054794	 1.565651
H	 1.735174	 -0.436655	 -0.497272
H	 2.543339	 -1.488569	 0.637486
C	 0.105483	 -0.782698	 1.727910
H	 1.101860	 1.086604	 1.368815
H	 1.926215	 0.049998	 2.503436
C	 -0.801763	 -0.364141	 2.886344
H	 -0.461313	 -0.755604	 0.800421
H	 0.393700	 -1.819861	 1.875196
C	 -1.466038	 1.002192	 2.726292
H	 -1.579061	 -1.114909	 2.998962
H	 -0.231315	 -0.380345	 3.812347
C	 -2.436700	 1.330671	 3.857808
H	 -1.998970	 1.032134	 1.778370
H	 -0.711186	 1.781061	 2.675654
C	 -3.098874	 2.695763	 3.703082
H	 -3.203458	 0.562401	 3.907011
H	 -1.907694	 1.292870	 4.806379
H	 -3.663065	 2.754470	 2.778160
H	 -3.782545	 2.895904	 4.520178
H	 -2.360000	 3.490248	 3.688565

4 3 2 1 F
