%nprocshared=4
%mem=2GB
#HF/6-31G* nosymm scf=tight opt=ModRedundant

Mol

0 1
O	 2.692424	 1.622770	 1.032639
C	 2.581111	 0.574564	 1.590880
C	 1.286943	 -0.218994	 1.572620
C	 3.734587	 -0.036097	 2.360128
C	 0.161497	 0.445005	 0.784768
H	 1.507546	 -1.206912	 1.170451
H	 0.985630	 -0.388944	 2.605446
C	 -1.124649	 -0.382990	 0.788712
H	 0.491235	 0.610075	 -0.236092
H	 -0.031473	 1.428868	 1.200610
C	 -2.259874	 0.272531	 0.000494
H	 -0.923166	 -1.369483	 0.373642
H	 -1.448840	 -0.546158	 1.815524
C	 -3.549786	 -0.549746	 -0.000374
H	 -1.937155	 0.435472	 -1.026308
H	 -2.462740	 1.258406	 0.415093
C	 -4.809590	 0.315458	 -0.000369
H	 -3.560515	 -1.202009	 -0.871156
H	 -3.561123	 -1.202955	 0.869711
H	 -4.844746	 0.956611	 -0.876632
H	 -5.706986	 -0.295590	 -0.001609
H	 -4.845960	 0.954827	 0.877144
H	 3.986755	 -1.011411	 1.954180
H	 4.596888	 0.613359	 2.301161
H	 3.460791	 -0.181410	 3.401067

15 11 14 18 F
