%nprocshared=1
%mem=2GB
#HF/6-31G* nosymm scf=tight 

Mol

0 1
H	 -3.161837	 0.500524	 -0.000234
C	 -2.367097	 -0.232926	 -0.000000
O	 -1.158440	 0.455814	 -0.000122
H	 -2.468853	 -0.861886	 -0.882833
H	 -2.468942	 -0.861421	 0.883154
C	 -0.029776	 -0.365156	 0.000148
C	 1.212217	 0.508981	 0.000007
H	 -0.036772	 -1.013236	 -0.877259
H	 -0.036869	 -1.012778	 0.877897
C	 1.453935	 1.180708	 -1.351006
H	 1.105449	 1.258870	 0.777779
H	 2.065392	 -0.104978	 0.271752
H	 0.621051	 1.819892	 -1.630600
H	 2.345968	 1.797410	 -1.322716
H	 1.587134	 0.446285	 -2.140490

6 3 2 4 F
8 6 3 2 F
