%nprocshared=4
%mem=2GB
#HF/cc-pVTZ nosymm scf=tight opt=ModRedundant

Mol

0 1
O	 -2.817697	 1.304178	 0.001046
C	 -2.664672	 0.129869	 0.003507
C	 -3.797908	 -0.860100	 -0.001145
O	 -1.481217	 -0.452708	 0.001092
H	 -4.408836	 -0.679689	 -0.875387
H	 -3.443486	 -1.878443	 -0.002770
H	 -4.412123	 -0.683688	 0.871605
C	 -0.332055	 0.384012	 -0.000250
C	 0.892252	 -0.506059	 -0.000295
H	 -0.360822	 1.020205	 -0.874146
H	 -0.359817	 1.021310	 0.872861
C	 1.873292	 -0.133742	 1.107541
H	 1.379907	 -0.433572	 -0.967046
H	 0.577071	 -1.538057	 0.115055
C	 3.116447	 -1.018784	 1.127401
H	 2.175654	 0.903968	 0.990438
H	 1.373692	 -0.198266	 2.070978
C	 4.096500	 -0.647820	 2.235051
H	 3.617531	 -0.953782	 0.165764
H	 2.815559	 -2.056007	 1.244537
H	 4.442526	 0.374472	 2.125366
H	 4.966301	 -1.294171	 2.221550
H	 3.634228	 -0.735982	 3.212490

13 9 8 10 F
