%nprocshared=4
%mem=2GB
#HF/cc-pVTZ nosymm scf=tight opt=ModRedundant

Mol

0 1
H	 -3.436473	 1.252944	 -1.023892
O	 -3.458596	 0.315260	 -0.960865
C	 -3.176635	 -0.080824	 0.355601
C	 -1.763371	 0.265266	 0.799691
H	 -3.321825	 -1.153438	 0.379502
H	 -3.895468	 0.357385	 1.043382
C	 -1.194159	 1.513488	 0.131664
H	 -1.753611	 0.390501	 1.881396
H	 -1.124485	 -0.588765	 0.587927
C	 0.211133	 1.864943	 0.612918
H	 -1.860199	 2.350201	 0.311148
H	 -1.178788	 1.362220	 -0.945085
C	 0.776967	 3.112231	 -0.063212
H	 0.190135	 2.003994	 1.689539
H	 0.877237	 1.025004	 0.426733
C	 2.214763	 3.459628	 0.326538
H	 0.132685	 3.961101	 0.153977
H	 0.737205	 2.971105	 -1.139838
C	 2.398205	 3.876073	 1.783956
H	 2.556835	 4.268924	 -0.311272
H	 2.859538	 2.611680	 0.110508
H	 1.760754	 4.719146	 2.030861
H	 3.423741	 4.172424	 1.972880
H	 2.161506	 3.070972	 2.469078

7 4 3 2 F
