%nprocshared=1
%mem=2GB
#HF/6-31G* nosymm scf=tight opt=ModRedundant

Mol

0 1
H	 3.143886	 -1.517601	 2.732809
O	 3.870086	 -1.557107	 2.127710
C	 3.603814	 -2.509788	 1.129936
C	 2.549986	 -2.052026	 0.127625
H	 4.545043	 -2.674143	 0.621260
H	 3.308553	 -3.458064	 1.577565
C	 1.163099	 -1.835477	 0.737969
H	 2.892489	 -1.130684	 -0.336257
H	 2.485193	 -2.799470	 -0.661359
C	 0.115918	 -1.429151	 -0.302766
H	 1.226735	 -1.070231	 1.506548
H	 0.838333	 -2.750887	 1.232835
C	 -1.309753	 -1.282496	 0.241564
H	 0.420250	 -0.494762	 -0.770895
H	 0.107049	 -2.175435	 -1.094398
C	 -2.037799	 -0.007733	 -0.193645
H	 -1.890610	 -2.142323	 -0.085726
H	 -1.285946	 -1.330893	 1.329189
C	 -3.489788	 0.042957	 0.286558
H	 -2.017067	 0.064384	 -1.280144
H	 -1.513726	 0.868678	 0.179924
C	 -4.216917	 1.317354	 -0.141063
H	 -4.025645	 -0.823308	 -0.095450
H	 -3.513059	 -0.038752	 1.371301
H	 -4.239342	 1.411634	 -1.223113
H	 -5.243387	 1.322503	 0.212445
H	 -3.726170	 2.201406	 0.256408

14 10 13 16 F
