%nprocshared=4
%mem=2GB
#HF/cc-pVTZ nosymm scf=tight opt=ModRedundant

Mol

0 1
H	 3.321509	 -0.485627	 -1.037091
C	 2.609393	 -0.682114	 -0.246166
C	 1.322304	 0.099773	 -0.484271
H	 2.423624	 -1.750010	 -0.224780
H	 3.072065	 -0.403001	 0.693712
C	 0.308557	 -0.162619	 0.622645
H	 0.885385	 -0.181566	 -1.434367
H	 1.532732	 1.161448	 -0.523044
N	 -1.069352	 -0.004081	 0.085342
H	 0.371632	 -1.172932	 0.991288
H	 0.400391	 0.548875	 1.426218
O	 -1.584901	 -0.965470	 -0.377818
O	 -1.548033	 1.079343	 0.130056

7 3 6 9 F
