%nprocshared=4
%mem=2GB
#HF/cc-pVTZ nosymm scf=tight opt=ModRedundant

Mol

0 1
O	 2.868453	 1.353349	 -0.000734
C	 2.841259	 0.166180	 -0.000295
C	 1.542794	 -0.614730	 -0.000853
C	 4.113372	 -0.651103	 0.000743
C	 0.288398	 0.247429	 0.000314
H	 1.557171	 -1.273139	 -0.866508
H	 1.557484	 -1.274998	 0.863344
C	 -0.962401	 -0.536193	 -0.387695
H	 0.428110	 1.079209	 -0.680668
H	 0.158771	 0.685066	 0.983576
C	 -2.227446	 0.317025	 -0.390653
H	 -0.824263	 -0.974233	 -1.373754
H	 -1.095059	 -1.369902	 0.298303
C	 -3.482728	 -0.459430	 -0.778106
H	 -2.095899	 1.150533	 -1.076272
H	 -2.366821	 0.754698	 0.594813
C	 -4.742656	 0.399856	 -0.778885
H	 -3.344774	 -0.896285	 -1.763532
H	 -3.615722	 -1.292030	 -0.092534
H	 -4.654744	 1.222419	 -1.480813
H	 -5.614410	 -0.180842	 -1.057912
H	 -4.927838	 0.823529	 0.202570
H	 4.145311	 -1.294584	 -0.871587
H	 4.970080	 0.004978	 -0.000091
H	 4.145223	 -1.291980	 0.874988

9 5 3 6 F
