%nprocshared=1
%mem=2GB
#HF/6-31G* nosymm scf=tight 

Mol

0 1
H	 -3.420663	 1.227371	 -1.044276
O	 -3.452007	 0.283848	 -0.965577
C	 -3.181085	 -0.079926	 0.364119
C	 -1.765924	 0.277073	 0.805136
H	 -3.327791	 -1.152017	 0.410903
H	 -3.905698	 0.375695	 1.036898
C	 -0.677594	 -0.417312	 -0.014550
H	 -1.637766	 1.358238	 0.744969
H	 -1.659588	 0.017670	 1.857098
C	 0.038862	 -1.527451	 0.757111
H	 0.044179	 0.322105	 -0.347741
H	 -1.124575	 -0.834732	 -0.915306
C	 1.122774	 -2.221787	 -0.071815
H	 0.474449	 -1.106129	 1.659980
H	 -0.689296	 -2.267780	 1.086206
C	 1.808980	 -3.400634	 0.627897
H	 1.875379	 -1.491071	 -0.363936
H	 0.676274	 -2.582053	 -0.996295
C	 2.639422	 -3.016465	 1.853941
H	 2.457475	 -3.896885	 -0.090072
H	 1.058570	 -4.134371	 0.915505
H	 3.390760	 -2.273773	 1.598917
H	 3.155792	 -3.882544	 2.256567
H	 2.025197	 -2.606326	 2.648723

20 16 13 17 F
17 13 10 7 F
13 10 7 11 F
1 2 3 5 F
7 4 3 2 F
