%nprocshared=4
%mem=2GB
#HF/cc-pVTZ nosymm scf=tight opt=ModRedundant

Mol

0 1
H	 -1.088256	 -1.364742	 0.152233
O	 -1.432053	 -0.565244	 -0.200812
C	 -0.727158	 0.534527	 0.310686
C	 0.680222	 0.664433	 -0.252229
H	 -1.306802	 1.408001	 0.044211
H	 -0.690821	 0.490158	 1.397609
C	 1.158466	 -0.568896	 -1.012642
H	 0.714298	 1.532182	 -0.902676
H	 1.355265	 0.862401	 0.575886
H	 0.542482	 -0.763377	 -1.883770
H	 2.175169	 -0.438664	 -1.363225
H	 1.138390	 -1.452428	 -0.381829

8 4 3 2 F
