%nprocshared=4
%mem=2GB
#HF/6-31G* nosymm scf=tight opt=ModRedundant

Mol

0 1
O	 -0.291628	 1.323815	 -0.000732
C	 -0.449655	 0.146360	 0.000961
C	 -1.783294	 -0.549321	 -0.000296
O	 0.550821	 -0.724572	 0.000672
H	 -1.863538	 -1.185371	 -0.874187
H	 -2.574672	 0.185258	 -0.002793
H	 -1.866414	 -1.182381	 0.875436
C	 0.752954	 -1.470201	 1.187880
H	 0.966529	 -0.812021	 2.017664
H	 1.597492	 -2.112327	 0.992492
H	 -0.121814	 -2.060951	 1.418399

8 4 2 1 F
