%nprocshared=1
%mem=2GB
#HF/6-31G* nosymm scf=tight 

Mol

0 1
H	 -0.093839	 4.012800	 -2.200457
C	 0.879519	 4.308825	 -1.789892
C	 1.009425	 4.169418	 -0.294465
O	 1.736537	 4.704804	 -2.511330
C	 0.618937	 2.770527	 0.202405
H	 2.025303	 4.422745	 -0.014237
H	 0.345409	 4.907148	 0.154412
C	 1.575623	 1.669079	 -0.261130
H	 0.587189	 2.787545	 1.287756
H	 -0.393263	 2.539921	 -0.126272
C	 1.180775	 0.282413	 0.250794
H	 2.582497	 1.907379	 0.075417
H	 1.618445	 1.650957	 -1.348502
C	 2.148627	 -0.814315	 -0.201312
H	 1.129515	 0.309314	 1.336326
H	 0.177245	 0.041761	 -0.097631
C	 3.580890	 -0.659131	 0.322722
H	 2.166869	 -0.852443	 -1.289387
H	 1.762857	 -1.776509	 0.128956
C	 4.324889	 0.564933	 -0.213704
H	 4.142010	 -1.551473	 0.056605
H	 3.564836	 -0.624694	 1.410140
H	 4.342616	 0.565491	 -1.300421
H	 3.866655	 1.493402	 0.110242
H	 5.353900	 0.572371	 0.132816

6 3 5 8 F
6 3 2 4 F
3 5 8 12 F
12 8 11 14 F
20 17 14 18 F
