%nprocshared=1
%mem=2GB
#HF/6-31G* nosymm scf=tight 

Mol

0 1
H	 -1.185878	 -0.702087	 0.820912
N	 -0.626943	 -0.667432	 -0.000092
C	 -1.027438	 -1.469021	 -1.134013
C	 0.469286	 0.129090	 0.000148
H	 -1.044757	 -2.523096	 -0.877827
H	 -0.313161	 -1.313041	 -1.925976
H	 -2.012168	 -1.180214	 -1.486048
C	 1.788933	 -0.616240	 -0.000037
O	 0.411098	 1.327768	 -0.000049
H	 1.872803	 -1.245775	 -0.880381
H	 2.595421	 0.101576	 0.003713
H	 1.870096	 -1.252171	 0.875943

4 2 3 5 F
