%nprocshared=4
%mem=2GB
#HF/6-31G* nosymm scf=tight opt=ModRedundant

Mol

0 1
H	 -2.595242	 0.949696	 1.051696
C	 -1.997998	 1.775142	 1.433899
O	 -0.636520	 1.525248	 1.295087
H	 -2.225916	 2.665346	 0.864047
H	 -2.270173	 1.944892	 2.474829
C	 -0.189637	 0.401748	 1.985952
C	 1.270121	 0.170869	 1.672892
H	 -0.307144	 0.547151	 3.060543
H	 -0.760981	 -0.479769	 1.702228
O	 1.392611	 -0.295398	 0.366430
H	 1.816716	 1.102530	 1.804228
H	 1.676098	 -0.558985	 2.374454
C	 2.706965	 -0.449871	 -0.062409
H	 2.756559	 -0.644779	 -1.131878
H	 3.305899	 0.433456	 0.155466
H	 3.125548	 -1.294566	 0.467107

7 10 13 14 F
