%nprocshared=1
%mem=2GB
#HF/6-31G* nosymm scf=tight 

Mol

0 1
O	 2.862325	 1.357334	 0.000267
C	 2.843464	 0.164689	 -0.000222
C	 1.546494	 -0.624492	 -0.000609
C	 4.124123	 -0.644674	 -0.000428
C	 0.291004	 0.242674	 0.000989
H	 1.557904	 -1.283758	 -0.867573
H	 1.558622	 -1.285963	 0.864672
C	 -0.768139	 -0.260943	 0.983001
H	 -0.121106	 0.273802	 -1.002667
H	 0.564607	 1.264341	 0.244885
C	 -2.032254	 0.600254	 0.992190
H	 -1.035350	 -1.287112	 0.734762
H	 -0.347734	 -0.291215	 1.987198
C	 -3.096548	 0.102822	 1.971911
H	 -2.453765	 0.630649	 -0.011016
H	 -1.766458	 1.626121	 1.241078
C	 -4.356329	 0.968052	 1.975193
H	 -3.363917	 -0.922154	 1.723392
H	 -2.676838	 0.073440	 2.975325
H	 -4.819152	 0.990221	 0.992618
H	 -5.091856	 0.590061	 2.678629
H	 -4.127416	 1.992603	 2.254547
H	 4.165367	 -1.288615	 -0.874074
H	 4.976217	 0.020734	 -0.001915
H	 4.166763	 -1.286207	 0.874930

9 5 8 12 F
15 11 8 12 F
15 11 14 18 F
1 2 3 6 F
