%nprocshared=4
%mem=2GB
#HF/cc-pVTZ nosymm scf=tight opt=ModRedundant

Mol

0 1
H	 -2.816458	 -0.841657	 -0.064679
N	 -1.878861	 -0.711874	 0.250184
C	 -1.341419	 0.551458	 -0.220231
H	 -1.333674	 -1.468530	 -0.105118
C	 -2.310626	 1.676960	 0.060005
H	 -0.380712	 0.806474	 0.225362
H	 -1.195907	 0.488868	 -1.293059
O	 -2.439627	 1.826395	 1.441575
H	 -1.942137	 2.600981	 -0.383363
H	 -3.276240	 1.446918	 -0.384515
C	 -3.360477	 2.789591	 1.833375
H	 -3.372389	 2.818275	 2.913385
H	 -3.088154	 3.774906	 1.460966
H	 -4.360361	 2.551969	 1.477943

6 3 2 4 F
