%nprocshared=4
%mem=2GB
#HF/cc-pVTZ nosymm scf=tight opt=ModRedundant

Mol

0 1
H	 2.614283	 2.028610	 0.296620
O	 3.358864	 1.662087	 -0.142800
C	 3.565468	 0.338079	 0.273842
C	 2.533667	 -0.637565	 -0.272227
H	 4.548038	 0.064914	 -0.086598
H	 3.593945	 0.282242	 1.360360
C	 1.114816	 -0.402372	 0.240993
H	 2.544552	 -0.580764	 -1.356576
H	 2.850574	 -1.642962	 -0.005497
C	 0.896906	 1.024057	 0.743639
H	 0.901913	 -1.103776	 1.040811
H	 0.403986	 -0.611909	 -0.556566
C	 -0.528768	 1.337265	 1.201468
H	 1.587775	 1.224626	 1.558929
H	 1.161149	 1.714529	 -0.052535
C	 -0.982208	 0.595337	 2.457525
H	 -0.600356	 2.405492	 1.386652
H	 -1.220724	 1.125605	 0.389340
C	 -2.371746	 1.014998	 2.930260
H	 -0.264721	 0.771811	 3.255984
H	 -0.981866	 -0.475781	 2.279453
C	 -2.829116	 0.273461	 4.181990
H	 -2.377192	 2.084227	 3.123384
H	 -3.088400	 0.847221	 2.130685
H	 -2.149774	 0.447216	 5.009964
H	 -3.816467	 0.596579	 4.491573
H	 -2.870814	 -0.797057	 4.009930

10 7 4 8 F
