%nprocshared=4
%mem=2GB
#HF/cc-pVTZ nosymm scf=tight opt=ModRedundant

Mol

0 1
H	 -3.436473	 1.252944	 -1.023892
O	 -3.458596	 0.315260	 -0.960865
C	 -3.176635	 -0.080824	 0.355601
C	 -1.763371	 0.265266	 0.799691
H	 -3.321825	 -1.153438	 0.379502
H	 -3.895468	 0.357385	 1.043382
C	 -0.673390	 -0.426948	 -0.013392
H	 -1.631049	 1.344913	 0.747560
H	 -1.664587	 -0.001624	 1.849167
C	 -0.524024	 0.139169	 -1.423063
H	 -0.888148	 -1.488443	 -0.068348
H	 0.273175	 -0.334808	 0.513894
C	 0.571867	 -0.554585	 -2.229771
H	 -1.475242	 0.053531	 -1.939532
H	 -0.303901	 1.203058	 -1.363548
C	 0.814886	 0.030744	 -3.621956
H	 0.333536	 -1.611633	 -2.323034
H	 1.500733	 -0.503240	 -1.668352
C	 -0.345247	 -0.143539	 -4.599126
H	 1.697205	 -0.441398	 -4.043112
H	 1.052553	 1.087383	 -3.530045
H	 -0.609324	 -1.190806	 -4.706698
H	 -0.080359	 0.231648	 -5.581119
H	 -1.231500	 0.389298	 -4.276255

11 7 4 3 F
