%nprocshared=4
%mem=2GB
#HF/cc-pVTZ nosymm scf=tight opt=ModRedundant

Mol

0 1
O	 1.816771	 1.332949	 -0.963334
C	 0.781622	 1.719742	 -1.387478
C	 -0.518665	 0.958414	 -1.351801
O	 0.630629	 2.901797	 -1.962250
C	 -0.824297	 0.329203	 -0.000133
H	 -1.301957	 1.647237	 -1.650842
H	 -0.472136	 0.207298	 -2.133531
C	 -0.764550	 1.342714	 1.138833
H	 -0.122527	 -0.475849	 0.186102
H	 -1.805865	 -0.129820	 -0.033467
C	 0.659611	 1.753151	 1.501845
H	 -1.333145	 2.229004	 0.865996
H	 -1.252272	 0.928891	 2.018671
C	 0.719366	 2.766466	 2.639841
H	 1.147383	 2.167502	 0.624036
H	 1.227987	 0.868903	 1.776095
H	 0.188301	 3.676820	 2.382044
H	 1.743214	 3.036050	 2.871779
H	 0.269899	 2.367814	 3.543329
C	 1.774850	 3.725117	 -2.063383
H	 2.168391	 3.953019	 -1.083894
H	 1.449161	 4.628457	 -2.553025
H	 2.542901	 3.240436	 -2.647673

1 2 4 20 F
