%nprocshared=4
%mem=2GB
#HF/cc-pVTZ nosymm scf=tight opt=ModRedundant

Mol

0 1
O	 -0.289257	 -2.087552	 1.781968
C	 0.668432	 -1.667642	 1.227450
C	 1.307814	 -0.325235	 1.475365
O	 1.317782	 -2.342573	 0.292610
C	 0.601076	 0.494385	 2.547745
H	 2.345143	 -0.512849	 1.724968
H	 1.321355	 0.201973	 0.526577
C	 0.437960	 -0.239672	 3.879433
H	 -0.369994	 0.805611	 2.178649
H	 1.163372	 1.405360	 2.711932
C	 1.696075	 -0.939143	 4.391579
H	 -0.346017	 -0.981493	 3.760079
H	 0.080390	 0.456681	 4.634759
C	 2.933064	 -0.045751	 4.352883
H	 1.527178	 -1.273435	 5.412654
H	 1.891696	 -1.832956	 3.806459
C	 3.401856	 0.282253	 2.938167
H	 3.742266	 -0.529609	 4.894561
H	 2.724096	 0.880165	 4.883804
C	 4.638975	 1.173539	 2.907800
H	 3.611247	 -0.641966	 2.406476
H	 2.595113	 0.768449	 2.396285
H	 4.944760	 1.387110	 1.890024
H	 5.474984	 0.699804	 3.411559
H	 4.451069	 2.120901	 3.402171
C	 0.824678	 -3.623490	 -0.043565
H	 -0.139967	 -3.792406	 0.411591
H	 1.544729	 -4.329140	 0.337866
H	 0.731980	 -3.727573	 -1.114467

2 4 26 27 F
