%nprocshared=4
%mem=2GB
#HF/cc-pVTZ nosymm scf=tight opt=ModRedundant

Mol

0 1
O	 -0.406316	 0.104456	 2.438929
C	 -0.846966	 0.612872	 1.465048
C	 -1.705041	 1.846597	 1.455975
O	 -0.637375	 0.157174	 0.243149
H	 -2.660144	 1.621661	 0.998917
H	 -1.849763	 2.193395	 2.466135
H	 -1.229463	 2.616125	 0.861651
C	 0.162530	 -1.009518	 0.097799
C	 1.587210	 -0.664190	 0.477086
H	 0.096803	 -1.356267	 -0.924704
H	 -0.233803	 -1.785900	 0.736810
C	 1.845540	 -0.635706	 1.981153
H	 1.807402	 0.311226	 0.051862
H	 2.259193	 -1.370996	 -0.000093
C	 3.282322	 -0.256619	 2.324033
H	 1.164547	 0.072136	 2.446242
H	 1.616302	 -1.607111	 2.403842
H	 3.436946	 -0.240014	 3.396508
H	 3.532637	 0.726371	 1.938722
H	 3.985548	 -0.965565	 1.899904

12 9 8 10 F
