%nprocshared=4
%mem=2GB
#HF/6-31G* nosymm scf=tight opt=ModRedundant

Mol

0 1
H	 0.957514	 -5.286026	 -1.978284
O	 1.865988	 -5.100799	 -2.166529
C	 1.975727	 -3.839604	 -2.775953
C	 1.745440	 -2.682945	 -1.809602
H	 2.982067	 -3.790488	 -3.171606
H	 1.292280	 -3.763918	 -3.620910
C	 0.331305	 -2.631585	 -1.226119
H	 2.470447	 -2.757689	 -1.003287
H	 1.952785	 -1.753635	 -2.337577
C	 0.115918	 -1.429151	 -0.302766
H	 0.137703	 -3.549340	 -0.677840
H	 -0.394428	 -2.592495	 -2.038599
C	 -1.309753	 -1.282496	 0.241564
H	 0.814740	 -1.487387	 0.529763
H	 0.370699	 -0.523365	 -0.848969
C	 -2.037799	 -0.007733	 -0.193645
H	 -1.890610	 -2.142323	 -0.085726
H	 -1.285946	 -1.330893	 1.329189
C	 -3.489788	 0.042957	 0.286558
H	 -2.017067	 0.064384	 -1.280144
H	 -1.513726	 0.868678	 0.179924
C	 -4.216917	 1.317354	 -0.141063
H	 -4.025645	 -0.823308	 -0.095450
H	 -3.513059	 -0.038752	 1.371301
H	 -4.239342	 1.411634	 -1.223113
H	 -5.243387	 1.322503	 0.212445
H	 -3.726170	 2.201406	 0.256408

14 10 13 16 F
