%nprocshared=4
%mem=2GB
#HF/6-31G* nosymm scf=tight opt=ModRedundant

Mol

0 1
O	 2.895104	 -0.466464	 -1.782989
C	 2.524321	 -0.709459	 -0.680023
C	 1.091099	 -0.681065	 -0.206887
O	 3.347903	 -1.046386	 0.304773
C	 0.102459	 -0.309818	 -1.310011
H	 0.877452	 -1.655464	 0.219836
H	 1.037629	 0.023100	 0.619544
C	 -1.344009	 -0.174118	 -0.822354
H	 0.155409	 -1.049790	 -2.102953
H	 0.416848	 0.628191	 -1.754671
C	 -1.986287	 -1.476771	 -0.336881
H	 -1.939642	 0.222741	 -1.641163
H	 -1.390550	 0.569363	 -0.027949
C	 -3.461151	 -1.310490	 0.034769
H	 -1.894775	 -2.232548	 -1.115499
H	 -1.447861	 -1.860930	 0.526537
C	 -4.112006	 -2.604689	 0.526265
H	 -4.010038	 -0.938649	 -0.828766
H	 -3.554386	 -0.547195	 0.805735
C	 -5.585767	 -2.430931	 0.891693
H	 -4.018846	 -3.368814	 -0.242550
H	 -3.567379	 -2.975590	 1.392056
H	 -6.018778	 -3.364926	 1.236311
H	 -6.164610	 -2.093825	 0.036418
H	 -5.709602	 -1.697117	 1.683182
C	 4.728119	 -1.109107	 -0.004993
H	 4.882018	 -1.033965	 -1.071845
H	 5.068212	 -2.067527	 0.355250
H	 5.265056	 -0.311663	 0.488280

2 4 26 27 F
