%nprocshared=4
%mem=2GB
#HF/cc-pVTZ nosymm scf=tight opt=ModRedundant

Mol

0 1
H	 0.281150	 -2.363513	 -0.694345
C	 -0.548990	 -1.674944	 -0.862238
N	 -0.537714	 -0.645117	 0.000000
O	 -1.349618	 -1.856602	 -1.724046
C	 -1.522613	 0.412524	 0.000000
H	 0.191526	 -0.619797	 0.668994
H	 -2.150256	 0.356137	 -0.880771
H	 -1.005621	 1.357208	 0.000000
H	 -2.150256	 0.356137	 0.880771

6 3 5 7 F
