%nprocshared=4
%mem=2GB
#HF/cc-pVTZ nosymm scf=tight opt=ModRedundant

Mol

0 1
H	 3.875066	 0.390463	 -0.356483
N	 3.079974	 -0.211944	 -0.332964
C	 1.855957	 0.544155	 -0.119524
H	 3.228112	 -0.866366	 0.406721
C	 0.639151	 -0.367898	 -0.167166
H	 1.780543	 1.282712	 -0.910569
H	 1.855681	 1.093798	 0.822733
C	 -0.678115	 0.376691	 0.025731
H	 0.636448	 -0.890433	 -1.118142
H	 0.737428	 -1.130817	 0.602756
C	 -1.900706	 -0.535531	 -0.022488
H	 -0.774230	 1.141837	 -0.741255
H	 -0.662822	 0.901957	 0.977957
C	 -3.220513	 0.226854	 0.028039
H	 -1.865036	 -1.134397	 -0.928236
H	 -1.857948	 -1.236381	 0.806820
H	 -3.309098	 0.911849	 -0.808725
H	 -4.066838	 -0.449485	 -0.008086
H	 -3.301685	 0.809374	 0.939860

12 8 11 15 F
