%nprocshared=4
%mem=2GB
#HF/cc-pVTZ nosymm scf=tight opt=ModRedundant

Mol

0 1
H	 -4.056460	 0.890191	 -4.226211
C	 -3.539644	 1.665460	 -3.644194
C	 -2.982248	 1.201931	 -2.325732
O	 -3.464593	 2.768173	 -4.063358
C	 -3.305318	 2.160431	 -1.175697
H	 -3.349993	 0.203382	 -2.128254
H	 -1.903075	 1.142478	 -2.448841
C	 -4.789956	 2.214817	 -0.822038
H	 -2.738153	 1.853224	 -0.303752
H	 -2.953219	 3.157553	 -1.428618
C	 -5.641798	 2.853761	 -1.915610
H	 -4.913910	 2.770234	 0.103842
H	 -5.157593	 1.211771	 -0.621615
C	 -6.900381	 3.527547	 -1.372262
H	 -5.037082	 3.575553	 -2.455684
H	 -5.927719	 2.092630	 -2.638262
C	 -7.827821	 4.111512	 -2.439380
H	 -6.614724	 4.314215	 -0.677756
H	 -7.459838	 2.800038	 -0.790848
C	 -7.244121	 5.287623	 -3.218572
H	 -8.743922	 4.435874	 -1.955707
H	 -8.114795	 3.326049	 -3.133643
H	 -6.941812	 6.086551	 -2.549005
H	 -6.377675	 4.999038	 -3.801388
H	 -7.976863	 5.694192	 -3.906144

12 8 11 14 F
