%nprocshared=1
%mem=2GB
#HF/6-31G* nosymm scf=tight 

Mol

0 1
O	 2.862325	 1.357334	 0.000267
C	 2.843464	 0.164689	 -0.000222
C	 1.546494	 -0.624492	 -0.000609
C	 4.124123	 -0.644674	 -0.000428
C	 0.291004	 0.242674	 0.000989
H	 1.557904	 -1.283758	 -0.867573
H	 1.558622	 -1.285963	 0.864672
C	 -0.750021	 -0.231030	 -1.014705
H	 0.568732	 1.271090	 -0.207234
H	 -0.139259	 0.243891	 0.997493
C	 -2.012886	 0.632009	 -1.022916
H	 -0.310858	 -0.233126	 -2.011289
H	 -1.022840	 -1.263501	 -0.801071
C	 -3.058979	 0.164600	 -2.036440
H	 -1.741436	 1.664224	 -1.237077
H	 -2.453235	 0.634137	 -0.027384
C	 -4.317430	 1.031768	 -2.038871
H	 -2.620321	 0.163194	 -3.032131
H	 -3.332239	 -0.866614	 -1.822467
H	 -4.081854	 2.063725	 -2.283249
H	 -5.039415	 0.676022	 -2.767488
H	 -4.799476	 1.025707	 -1.065352
H	 4.165367	 -1.288615	 -0.874074
H	 4.976217	 0.020734	 -0.001915
H	 4.166763	 -1.286207	 0.874930

9 5 8 12 F
15 11 8 12 F
15 11 14 18 F
1 2 3 6 F
