%nprocshared=4
%mem=2GB
#HF/cc-pVTZ nosymm scf=tight opt=ModRedundant

Mol

0 1
H	 -3.258660	 -0.290394	 1.471450
C	 -3.307964	 -0.275695	 0.374072
C	 -2.653809	 0.914422	 -0.273689
O	 -3.855140	 -1.148880	 -0.205112
C	 -1.154777	 0.710131	 -0.512107
H	 -3.177655	 1.136748	 -1.194281
H	 -2.796785	 1.753732	 0.403380
C	 -0.840553	 -0.356853	 -1.558525
H	 -0.724814	 1.656428	 -0.821934
H	 -0.672639	 0.453122	 0.427938
C	 0.656350	 -0.541364	 -1.793081
H	 -1.322956	 -0.088487	 -2.494674
H	 -1.275896	 -1.306439	 -1.258205
C	 0.967234	 -1.600606	 -2.848829
H	 1.086704	 0.411683	 -2.084360
H	 1.134604	 -0.819412	 -0.856459
C	 2.456444	 -1.879095	 -3.060009
H	 0.521152	 -1.305077	 -3.795644
H	 0.480745	 -2.528887	 -2.562601
C	 3.246689	 -0.713699	 -3.650305
H	 2.553847	 -2.734763	 -3.720871
H	 2.903290	 -2.175459	 -2.114598
H	 2.818386	 -0.391266	 -4.594015
H	 3.265756	 0.142111	 -2.986293
H	 4.274669	 -1.002362	 -3.837111

6 3 2 4 F
