%nprocshared=4
%mem=2GB
#HF/cc-pVTZ nosymm scf=tight opt=ModRedundant

Mol

0 1
H	 -2.816458	 -0.841657	 -0.064679
N	 -1.878861	 -0.711874	 0.250184
C	 -1.341419	 0.551458	 -0.220231
H	 -1.333674	 -1.468530	 -0.105118
C	 0.082190	 0.731516	 0.254705
H	 -1.357065	 0.652078	 -1.304747
H	 -1.939897	 1.357530	 0.189797
O	 0.776860	 -0.462793	 0.057813
H	 0.558398	 1.537365	 -0.302078
H	 0.084730	 0.997852	 1.309213
C	 2.086818	 -0.450167	 0.519410
H	 2.521715	 -1.417239	 0.311994
H	 2.677871	 0.313237	 0.017846
H	 2.129375	 -0.269156	 1.590851

8 5 3 6 F
