%nprocshared=4
%mem=2GB
#HF/cc-pVTZ nosymm scf=tight opt=ModRedundant

Mol

0 1
O	 1.359741	 0.167319	 1.158836
C	 1.121787	 0.124983	 0.000110
C	 -0.154413	 0.595286	 -0.649190
O	 1.969101	 -0.353489	 -0.896273
C	 -0.616782	 1.964518	 -0.172385
H	 0.009662	 0.587359	 -1.721802
H	 -0.908347	 -0.161926	 -0.460307
C	 0.473645	 3.023959	 -0.302245
H	 -0.939213	 1.894039	 0.860384
H	 -1.490420	 2.265175	 -0.739753
C	 0.021616	 4.399751	 0.174994
H	 1.347538	 2.715552	 0.265590
H	 0.792766	 3.089893	 -1.339092
H	 -0.271431	 4.374147	 1.219049
H	 0.814950	 5.130888	 0.071375
H	 -0.830124	 4.751274	 -0.397328
C	 3.226978	 0.281687	 -1.004047
H	 3.107866	 1.319775	 -1.276836
H	 3.762124	 -0.246898	 -1.776112
H	 3.765395	 0.222432	 -0.069799

1 2 4 17 F
