%nprocshared=4
%mem=2GB
#HF/cc-pVTZ nosymm scf=tight opt=ModRedundant

Mol

0 1
O	 3.042008	 -0.988224	 0.050560
C	 2.574127	 -2.072921	 -0.023620
C	 3.300766	 -3.312667	 -0.478981
O	 1.317782	 -2.342573	 0.292610
C	 2.460987	 -4.579796	 -0.376961
H	 3.634231	 -3.126607	 -1.492754
H	 4.202363	 -3.392443	 0.120259
C	 1.116182	 -4.489906	 -1.099636
H	 2.300785	 -4.820016	 0.668362
H	 3.029833	 -5.404502	 -0.788404
C	 1.179774	 -3.925532	 -2.518031
H	 0.457702	 -3.862186	 -0.506731
H	 0.652285	 -5.473515	 -1.123972
C	 2.269850	 -4.571676	 -3.368924
H	 0.216049	 -4.067878	 -3.001603
H	 1.349916	 -2.853332	 -2.486800
C	 3.683711	 -4.225239	 -2.910937
H	 2.144661	 -4.266243	 -4.404964
H	 2.144004	 -5.651865	 -3.354108
C	 4.767033	 -4.872929	 -3.766909
H	 3.811035	 -3.146212	 -2.925408
H	 3.811386	 -4.532411	 -1.876432
H	 5.757298	 -4.607143	 -3.415174
H	 4.688355	 -4.557757	 -4.802083
H	 4.688029	 -5.954831	 -3.745583
C	 0.824678	 -3.623490	 -0.043565
H	 -0.139967	 -3.792406	 0.411591
H	 1.544729	 -4.329140	 0.337866
H	 0.731980	 -3.727573	 -1.114467

6 3 2 1 F
