%nprocshared=4
%mem=2GB
#HF/cc-pVTZ nosymm scf=tight opt=ModRedundant

Mol

0 1
H	 -3.436473	 1.252944	 -1.023892
O	 -3.458596	 0.315260	 -0.960865
C	 -3.176635	 -0.080824	 0.355601
C	 -1.763371	 0.265266	 0.799691
H	 -3.321825	 -1.153438	 0.379502
H	 -3.895468	 0.357385	 1.043382
C	 -0.673390	 -0.426948	 -0.013392
H	 -1.631049	 1.344913	 0.747560
H	 -1.664587	 -0.001624	 1.849167
C	 0.544588	 0.458719	 -0.262580
H	 -1.086938	 -0.752264	 -0.961580
H	 -0.362188	 -1.328826	 0.508408
C	 1.042057	 1.155813	 1.002186
H	 1.338703	 -0.146503	 -0.689167
H	 0.298131	 1.209691	 -1.010348
C	 0.086341	 2.201505	 1.579233
H	 2.003023	 1.623044	 0.799482
H	 1.227448	 0.402563	 1.763018
C	 -0.122867	 3.430497	 0.697783
H	 0.472879	 2.525744	 2.540603
H	 -0.874688	 1.735803	 1.781630
H	 0.822673	 3.914010	 0.473626
H	 -0.754447	 4.157525	 1.195557
H	 -0.596821	 3.179125	 -0.243378

11 7 4 3 F
