%nprocshared=4
%mem=2GB
#HF/cc-pVTZ nosymm scf=tight opt=ModRedundant

Mol

0 1
H	 -2.816458	 -0.841657	 -0.064679
N	 -1.878861	 -0.711874	 0.250184
C	 -1.341419	 0.551458	 -0.220231
H	 -1.333674	 -1.468530	 -0.105118
C	 0.082190	 0.731516	 0.254705
H	 -1.357065	 0.652078	 -1.304747
H	 -1.939897	 1.357530	 0.189797
O	 0.949664	 0.292249	 -0.746415
H	 0.267848	 1.781573	 0.476254
H	 0.238900	 0.158051	 1.165479
C	 2.295169	 0.341370	 -0.405207
H	 2.865687	 -0.016166	 -1.250229
H	 2.610432	 1.357073	 -0.175747
H	 2.510736	 -0.288128	 0.454924

8 5 3 6 F
