%nprocshared=4
%mem=2GB
#HF/cc-pVTZ nosymm scf=tight opt=ModRedundant

Mol

0 1
H	 -1.364746	 0.067696	 -1.625901
C	 -0.776521	 -0.484937	 -0.925102
C	 -0.771634	 -1.865038	 -0.919312
C	 0.000000	 0.179985	 0.000046
H	 -1.368704	 -2.400767	 -1.630660
C	 0.000002	 -2.552036	 -0.000012
N	 0.000000	 1.644631	 0.000076
C	 0.776520	 -0.484975	 0.925168
H	 0.000000	 -3.625035	 -0.000032
C	 0.771636	 -1.865075	 0.919319
O	 1.050559	 2.194174	 -0.000073
O	 -1.050559	 2.194174	 -0.000074
H	 1.364752	 0.067629	 1.625984
H	 1.368703	 -2.400834	 1.630647

2 4 7 11 F
