%nprocshared=4
%mem=2GB
#HF/cc-pVTZ nosymm scf=tight opt=ModRedundant

Mol

0 1
O	 4.708768	 0.306030	 -2.182322
C	 3.625614	 0.757458	 -1.996786
C	 2.412778	 0.200582	 -2.715789
C	 3.395922	 1.891301	 -1.026008
C	 1.859142	 -1.031294	 -1.988595
H	 2.723021	 -0.076582	 -3.715309
H	 1.641516	 0.959279	 -2.795793
C	 1.630207	 -0.772146	 -0.501001
H	 0.933948	 -1.322353	 -2.469770
H	 2.547716	 -1.864945	 -2.103451
C	 2.907848	 -0.545876	 0.309149
H	 1.078061	 -1.605999	 -0.074619
H	 0.993181	 0.101419	 -0.392901
C	 3.373802	 0.906639	 0.372125
H	 3.699140	 -1.146831	 -0.127906
H	 2.764321	 -0.923458	 1.318191
H	 3.519798	 1.311927	 -0.623875
H	 4.316899	 0.983758	 0.900700
H	 2.661122	 1.540651	 0.885346
H	 3.099756	 2.778236	 -1.577033
H	 4.299480	 2.096079	 -0.472638
H	 2.587482	 1.653452	 -0.343775

12 8 11 15 F
