%nprocshared=4
%mem=2GB
#HF/cc-pVTZ nosymm scf=tight opt=ModRedundant

Mol

0 1
O	 -0.694481	 1.313155	 -0.204815
C	 -0.862519	 0.151932	 -0.046791
C	 -2.171428	 -0.477048	 0.339095
O	 0.085519	 -0.757083	 -0.192238
H	 -2.467997	 -1.191667	 -0.417688
H	 -2.923379	 0.287970	 0.444097
H	 -2.053854	 -1.015120	 1.270901
C	 1.394352	 -0.463295	 0.282236
C	 1.540863	 -0.783182	 1.755364
H	 1.619546	 0.573162	 0.085104
H	 2.046910	 -1.084344	 -0.312925
H	 2.565637	 -0.610457	 2.064324
H	 0.895247	 -0.154781	 2.353423
H	 1.297702	 -1.821227	 1.947535

8 4 2 1 F
