%nprocshared=4
%mem=2GB
#HF/cc-pVTZ nosymm scf=tight opt=ModRedundant

Mol

0 1
O	 -1.122364	 -1.102771	 2.056748
C	 -0.439844	 -1.126239	 1.089554
C	 0.815782	 -1.946189	 0.931609
O	 -0.695554	 -0.422406	 0.000602
C	 1.154279	 -2.776244	 2.159372
H	 1.618413	 -1.259813	 0.685394
H	 0.682336	 -2.572161	 0.056231
H	 1.302744	 -2.146591	 3.026386
H	 2.062219	 -3.341408	 1.987373
H	 0.358155	 -3.470878	 2.391524
C	 -1.852370	 0.402254	 0.000718
C	 -3.063338	 -0.501097	 -0.000437
H	 -1.831732	 1.039442	 -0.872158
H	 -1.832493	 1.038301	 0.874430
H	 -3.071944	 -1.133732	 -0.879113
H	 -3.966302	 0.097976	 -0.000483
H	 -3.072764	 -1.134834	 0.877435

2 4 11 13 F
