%nprocshared=4
%mem=2GB
#HF/6-31G* nosymm scf=tight opt=ModRedundant

Mol

0 1
H	 2.614757	 3.946133	 3.716707
C	 2.345059	 3.219654	 2.970867
C	 1.297224	 3.479030	 2.100285
C	 3.046129	 2.027284	 2.883195
H	 0.754335	 4.404161	 2.169355
C	 0.951033	 2.544439	 1.141549
H	 3.858094	 1.827969	 3.558911
C	 2.701355	 1.090277	 1.924278
H	 0.143070	 2.728173	 0.459560
C	 1.651670	 1.347235	 1.050266
H	 3.241143	 0.166238	 1.852847
C	 1.239129	 0.373821	 0.000060
O	 1.970282	 -0.730723	 0.000018
O	 0.345689	 0.559566	 -0.765526
C	 3.377318	 -0.566646	 -0.000065
H	 3.695437	 -0.028981	 -0.881264
H	 3.789299	 -1.563704	 0.000236
H	 3.695516	 -0.028316	 0.880770

10 12 13 15 F
