%nprocshared=4
%mem=2GB
#HF/cc-pVTZ nosymm scf=tight opt=ModRedundant

Mol

0 1
O	 0.096893	 1.226027	 0.276514
C	 0.029490	 0.077183	 0.000078
C	 -1.232113	 -0.748027	 0.000015
O	 1.078560	 -0.646922	 -0.352564
C	 -2.501422	 0.088592	 -0.000052
H	 -1.188777	 -1.400384	 -0.865133
H	 -1.188857	 -1.400312	 0.865225
H	 -2.548170	 0.725504	 -0.873205
H	 -3.371613	 -0.556398	 -0.000040
H	 -2.548215	 0.725571	 0.873047
C	 2.332123	 0.004568	 -0.394783
H	 2.316313	 0.815808	 -1.107436
H	 3.046449	 -0.743462	 -0.698124
H	 2.591587	 0.395132	 0.578039

4 2 3 6 F
