%nprocshared=4
%mem=2GB
#HF/6-31G* nosymm scf=tight opt=ModRedundant

Mol

0 1
H	 -3.420663	 1.227371	 -1.044276
O	 -3.452007	 0.283848	 -0.965577
C	 -3.181085	 -0.079926	 0.364119
C	 -1.765924	 0.277073	 0.805136
H	 -3.327791	 -1.152017	 0.410903
H	 -3.905698	 0.375695	 1.036898
C	 -1.108778	 1.351220	 -0.062553
H	 -1.790975	 0.608212	 1.843732
H	 -1.163977	 -0.629944	 0.790987
C	 0.302127	 1.718115	 0.402112
H	 -1.735206	 2.237940	 -0.067610
H	 -1.069433	 0.999698	 -1.092251
C	 0.955667	 2.789577	 -0.474780
H	 0.257235	 2.058914	 1.433742
H	 0.926860	 0.825751	 0.402306
C	 2.403958	 3.127473	 -0.102710
H	 0.355650	 3.697590	 -0.440311
H	 0.935048	 2.452632	 -1.509120
C	 2.570971	 3.788888	 1.266612
H	 2.808182	 3.792541	 -0.862037
H	 3.006012	 2.221836	 -0.142130
H	 1.969898	 4.691391	 1.339676
H	 3.606402	 4.068162	 1.436102
H	 2.276283	 3.128712	 2.075618

7 4 3 2 F
