%nprocshared=1
%mem=2GB
#HF/6-31G* nosymm scf=tight opt=ModRedundant

Mol

0 1
H	 2.591676	 2.013956	 0.335017
O	 3.341076	 1.666752	 -0.126416
C	 3.569581	 0.339145	 0.272707
C	 4.832976	 0.172072	 1.109755
H	 2.703880	 0.054254	 0.856722
H	 3.604898	 -0.318854	 -0.594801
C	 6.125044	 0.504896	 0.359651
H	 4.749196	 0.803606	 1.990386
H	 4.873512	 -0.857804	 1.460583
C	 7.378024	 0.275417	 1.209474
H	 6.092184	 1.540895	 0.034086
H	 6.188011	 -0.105286	 -0.541489
C	 8.704410	 0.512220	 0.478060
H	 7.334400	 0.912618	 2.090904
H	 7.364984	 -0.749006	 1.575654
C	 8.963749	 1.964399	 0.067698
H	 9.515013	 0.185044	 1.125899
H	 8.747228	 -0.125038	 -0.403930
C	 10.342914	 2.168423	 -0.562948
H	 8.871234	 2.606625	 0.942396
H	 8.203651	 2.296054	 -0.635551
C	 10.601850	 3.615914	 -0.979345
H	 11.110513	 1.852791	 0.140370
H	 10.440830	 1.520359	 -1.431459
H	 10.543244	 4.285787	 -0.126080
H	 11.587335	 3.728392	 -1.420708
H	 9.871916	 3.950328	 -1.711279

4 3 2 1 F
