%nprocshared=4
%mem=2GB
#HF/cc-pVTZ nosymm scf=tight opt=ModRedundant

Mol

0 1
O	 -0.694481	 1.313155	 -0.204815
C	 -0.862519	 0.151932	 -0.046791
C	 -2.171428	 -0.477048	 0.339095
O	 0.085519	 -0.757083	 -0.192238
H	 -2.467997	 -1.191667	 -0.417688
H	 -2.923379	 0.287970	 0.444097
H	 -2.053854	 -1.015120	 1.270901
C	 0.139376	 -1.502500	 -1.402995
C	 0.907684	 -0.765795	 -2.480431
H	 -0.864770	 -1.727929	 -1.726552
H	 0.637697	 -2.422358	 -1.135997
H	 0.984916	 -1.390623	 -3.363084
H	 0.404305	 0.150740	 -2.756033
H	 1.909256	 -0.529040	 -2.142210

8 4 2 1 F
