%nprocshared=4
%mem=2GB
#HF/cc-pVTZ nosymm scf=tight opt=ModRedundant

Mol

0 1
O	 -0.694481	 1.313155	 -0.204815
C	 -0.862519	 0.151932	 -0.046791
C	 -2.171428	 -0.477048	 0.339095
O	 0.085519	 -0.757083	 -0.192238
H	 -2.467997	 -1.191667	 -0.417688
H	 -2.923379	 0.287970	 0.444097
H	 -2.053854	 -1.015120	 1.270901
C	 1.327536	 -0.365364	 -0.765325
C	 2.266731	 0.210909	 0.273771
H	 1.145269	 0.341669	 -1.559492
H	 1.731980	 -1.272742	 -1.188221
H	 3.222933	 0.435034	 -0.185465
H	 1.867555	 1.125288	 0.690846
H	 2.432085	 -0.498621	 1.075531

8 4 2 1 F
