%nprocshared=4
%mem=2GB
#HF/cc-pVTZ nosymm scf=tight opt=ModRedundant

Mol

0 1
O	 1.819077	 2.223338	 1.610455
C	 1.819737	 1.047714	 1.781739
C	 0.561413	 0.227212	 1.578149
C	 3.071168	 0.307770	 2.190605
C	 0.376695	 -0.140025	 0.100361
H	 -0.277248	 0.825304	 1.911383
H	 0.598490	 -0.674320	 2.180420
C	 1.630207	 -0.772146	 -0.501001
H	 -0.464745	 -0.816743	 0.021246
H	 0.117839	 0.749558	 -0.468791
C	 2.907848	 -0.545876	 0.309149
H	 1.772784	 -0.391628	 -1.509394
H	 1.468529	 -1.842059	 -0.599744
C	 3.373802	 0.906639	 0.372125
H	 3.699140	 -1.146831	 -0.127906
H	 2.764321	 -0.923458	 1.318191
H	 3.519798	 1.311927	 -0.623875
H	 4.316899	 0.983758	 0.900700
H	 2.661122	 1.540651	 0.885346
H	 2.947527	 -0.071730	 3.199907
H	 3.922705	 0.969809	 2.156551
H	 3.238501	 -0.547339	 1.545332

3 5 8 12 F
