%nprocshared=1
%mem=2GB
#HF/6-31G* nosymm scf=tight 

Mol

0 1
H	 -3.301617	 0.570527	 0.000000
C	 -2.250981	 0.344174	 0.000000
C	 -1.813665	 -0.976045	 0.000000
C	 -1.315303	 1.358057	 0.000000
H	 -2.528860	 -1.779366	 0.000000
C	 -0.467298	 -1.270142	 0.000000
H	 -1.635074	 2.385107	 0.000000
C	 0.047081	 1.078114	 0.000000
H	 -0.115948	 -2.285222	 0.000000
C	 0.472063	 -0.241155	 0.000000
H	 0.749976	 1.888426	 0.000000
O	 1.765256	 -0.628444	 0.000000
C	 2.163435	 -1.718308	 0.780207
H	 1.982488	 -1.539064	 1.834940
H	 3.224586	 -1.834293	 0.617986
H	 1.656088	 -2.628941	 0.479078

10 12 13 14 F
