%nprocshared=4
%mem=2GB
#HF/6-31G* nosymm scf=tight opt=ModRedundant

Mol

0 1
H	 -1.369502	 1.308720	 4.559471
C	 -0.839658	 1.111505	 3.644509
C	 -0.954190	 1.988689	 2.576529
C	 -0.044637	 -0.018673	 3.536944
H	 -1.571096	 2.864823	 2.661271
C	 -0.272613	 1.734437	 1.400396
H	 0.042932	 -0.697508	 4.365871
C	 0.638551	 -0.275213	 2.360587
H	 -0.349455	 2.402142	 0.563774
C	 0.525845	 0.601986	 1.288401
H	 1.254888	 -1.148579	 2.272947
C	 1.239129	 0.373821	 0.000060
O	 1.970282	 -0.730723	 0.000018
O	 1.166433	 1.102864	 -0.939126
C	 3.377318	 -0.566646	 -0.000065
H	 3.695437	 -0.028981	 -0.881264
H	 3.789299	 -1.563704	 0.000236
H	 3.695516	 -0.028316	 0.880770

10 12 13 15 F
