%nprocshared=1
%mem=2GB
#HF/6-31G* nosymm scf=tight 

Mol

0 1
H	 2.460008	 2.112165	 0.842945
O	 3.257691	 1.810287	 0.433503
C	 3.493229	 0.470714	 0.785812
C	 2.547801	 -0.507192	 0.096906
H	 4.513349	 0.263367	 0.489099
H	 3.439377	 0.345843	 1.866685
C	 1.077958	 -0.330434	 0.485733
H	 2.657124	 -0.392985	 -0.978441
H	 2.867832	 -1.518388	 0.342733
C	 0.162022	 -1.361042	 -0.180395
H	 0.754869	 0.670869	 0.214859
H	 0.977657	 -0.410340	 1.568274
C	 -1.309753	 -1.282496	 0.241564
H	 0.232437	 -1.256688	 -1.261597
H	 0.534209	 -2.356511	 0.052456
C	 -2.037799	 -0.007733	 -0.193645
H	 -1.831696	 -2.140116	 -0.177816
H	 -1.379526	 -1.386345	 1.323315
C	 -3.489788	 0.042957	 0.286558
H	 -2.017067	 0.064384	 -1.280144
H	 -1.513726	 0.868678	 0.179924
C	 -4.216917	 1.317354	 -0.141063
H	 -4.025645	 -0.823308	 -0.095450
H	 -3.513059	 -0.038752	 1.371301
H	 -4.239342	 1.411634	 -1.223113
H	 -5.243387	 1.322503	 0.212445
H	 -3.726170	 2.201406	 0.256408

14 10 7 4 F
14 10 13 16 F
10 7 4 8 F
8 4 3 2 F
20 16 19 22 F
4 3 2 1 F
