%nprocshared=4
%mem=2GB
#HF/cc-pVTZ nosymm scf=tight opt=ModRedundant

Mol

0 1
H	 -9.000067	 3.268899	 -1.408192
C	 -8.534021	 3.320546	 -2.401681
C	 -8.432789	 2.004129	 -3.123269
O	 -8.148403	 4.356325	 -2.820927
C	 -7.050646	 1.771299	 -3.740640
H	 -8.701058	 1.212782	 -2.435420
H	 -9.178587	 2.026104	 -3.914854
C	 -5.941737	 1.583834	 -2.707509
H	 -7.102597	 0.894351	 -4.376724
H	 -6.803731	 2.604090	 -4.394618
C	 -5.641798	 2.853761	 -1.915610
H	 -5.038917	 1.250890	 -3.212653
H	 -6.211161	 0.787316	 -2.018744
C	 -6.900381	 3.527547	 -1.372262
H	 -4.969260	 2.608640	 -1.099550
H	 -5.107334	 3.555565	 -2.552098
C	 -7.827821	 4.111512	 -2.439380
H	 -6.614724	 4.314215	 -0.677756
H	 -7.459838	 2.800038	 -0.790848
C	 -7.116156	 4.654783	 -3.676099
H	 -8.403789	 4.914204	 -1.989560
H	 -8.548079	 3.355482	 -2.740966
H	 -6.384369	 5.408859	 -3.404339
H	 -6.599956	 3.875132	 -4.223243
H	 -7.824562	 5.113800	 -4.356121

20 17 14 18 F
