%nprocshared=1
%mem=2GB
#HF/6-31G* nosymm scf=tight 

Mol

0 1
H	 -3.963194	 0.840429	 -0.442076
C	 -3.272722	 0.214904	 0.089551
C	 -2.076860	 -0.007332	 -0.404944
H	 -3.584024	 -0.216370	 1.022291
O	 -1.180634	 -0.819263	 0.215062
H	 -1.743266	 0.420813	 -1.333708
C	 0.051604	 -1.018856	 -0.387932
C	 1.043764	 0.054862	 -0.001873
H	 -0.017620	 -1.041351	 -1.469781
H	 0.437898	 -1.966374	 -0.042284
F	 2.212596	 -0.199467	 -0.571921
F	 0.652529	 1.252447	 -0.405055
F	 1.230877	 0.110694	 1.300533

11 8 7 9 F
3 5 7 9 F
6 3 2 1 F
