%nprocshared=4
%mem=2GB
#HF/cc-pVTZ nosymm scf=tight opt=ModRedundant

Mol

0 1
H	 1.166964	 -1.062386	 0.758429
O	 1.324748	 -0.612467	 -0.052206
C	 0.706474	 0.636793	 -0.025501
C	 -0.336922	 0.841478	 -1.087132
H	 1.493200	 1.371128	 -0.152444
H	 0.259109	 0.827357	 0.948281
C	 -0.618064	 0.004189	 -2.060894
H	 -0.879715	 1.769216	 -1.010142
H	 -0.088075	 -0.921386	 -2.180872
H	 -1.383105	 0.227088	 -2.779982

5 3 2 1 F
