%nprocshared=1
%mem=2GB
#HF/6-31G* nosymm scf=tight opt=ModRedundant

Mol

0 1
H	 2.591676	 2.013956	 0.335017
O	 3.341076	 1.666752	 -0.126416
C	 3.569581	 0.339145	 0.272707
C	 2.539767	 -0.640285	 -0.279495
H	 4.553106	 0.084646	 -0.100901
H	 3.608576	 0.269204	 1.359154
C	 3.139864	 -1.953284	 -0.788205
H	 1.810837	 -0.849638	 0.499093
H	 2.005238	 -0.148714	 -1.090669
C	 2.087798	 -2.892099	 -1.385368
H	 3.649818	 -2.453610	 0.030322
H	 3.895678	 -1.737323	 -1.543484
C	 2.647202	 -4.186237	 -1.987543
H	 1.353225	 -3.139023	 -0.620987
H	 1.547206	 -2.356273	 -2.162768
C	 3.272444	 -5.150306	 -0.975553
H	 1.838712	 -4.700806	 -2.502690
H	 3.382429	 -3.938608	 -2.751715
C	 3.720156	 -6.470031	 -1.607468
H	 2.552512	 -5.357649	 -0.185099
H	 4.128205	 -4.683785	 -0.493544
C	 4.350470	 -7.431641	 -0.600653
H	 2.866143	 -6.951036	 -2.079469
H	 4.432216	 -6.264224	 -2.404023
H	 3.651429	 -7.682937	 0.192074
H	 4.655312	 -8.357697	 -1.078279
H	 5.230192	 -6.993692	 -0.137346

8 4 3 2 F
