%nprocshared=4
%mem=2GB
#HF/cc-pVTZ nosymm scf=tight opt=ModRedundant

Mol

0 1
O	 2.868453	 1.353349	 -0.000734
C	 2.841259	 0.166180	 -0.000295
C	 1.542794	 -0.614730	 -0.000853
C	 4.113372	 -0.651103	 0.000743
C	 0.288398	 0.247429	 0.000314
H	 1.557171	 -1.273139	 -0.866508
H	 1.557484	 -1.274998	 0.863344
C	 0.522557	 1.622980	 0.618488
H	 -0.497741	 -0.269507	 0.538717
H	 -0.068735	 0.356765	 -1.017348
C	 -0.727823	 2.497522	 0.626050
H	 0.882882	 1.505496	 1.638114
H	 1.313532	 2.134774	 0.074717
C	 -0.501879	 3.874813	 1.243104
H	 -1.518979	 1.986882	 1.169587
H	 -1.088315	 2.616194	 -0.392817
C	 -1.755811	 4.742816	 1.247147
H	 -0.142657	 3.757178	 2.261956
H	 0.287905	 4.386470	 0.699629
H	 -2.554257	 4.274059	 1.812648
H	 -1.561435	 5.712302	 1.691373
H	 -2.120357	 4.908217	 0.238786
H	 4.145311	 -1.294584	 -0.871587
H	 4.970080	 0.004978	 -0.000091
H	 4.145223	 -1.291980	 0.874988

9 5 3 6 F
