%nprocshared=4
%mem=2GB
#HF/cc-pVTZ nosymm scf=tight opt=ModRedundant

Mol

0 1
O	 0.618137	 0.032412	 -2.335168
C	 0.141653	 0.470944	 -1.327512
C	 -1.019584	 1.441140	 -1.398806
N	 0.622280	 0.144970	 -0.099307
H	 -0.773018	 2.386568	 -0.932205
H	 -1.239395	 1.604568	 -2.440663
H	 -1.898043	 1.041915	 -0.906970
C	 1.664396	 -0.854993	 0.000772
C	 -0.045426	 0.466488	 1.139462
H	 2.462727	 -0.615153	 -0.690869
H	 1.261798	 -1.821849	 -0.240651
H	 2.081615	 -0.891605	 1.003877
H	 0.695891	 0.632572	 1.910502
H	 -0.632780	 1.364611	 1.054112
H	 -0.695834	 -0.339699	 1.471238

2 4 8 10 F
