%nprocshared=4
%mem=2GB
#HF/6-31G* nosymm scf=tight opt=ModRedundant

Mol

0 1
H	 -3.407059	 -1.043082	 0.000000
O	 -3.119761	 -0.140267	 0.000000
C	 -1.777559	 -0.059267	 0.000000
C	 -0.983096	 -0.915220	 0.757083
C	 -1.197224	 0.922685	 -0.793125
H	 -1.440899	 -1.673587	 1.369133
C	 0.389310	 -0.785653	 0.717932
H	 -1.831218	 1.570699	 -1.367932
C	 0.176785	 1.039787	 -0.821755
H	 1.014408	 -1.439200	 1.296923
C	 0.985743	 0.192506	 -0.071204
H	 0.627012	 1.800574	 -1.436215
C	 2.454922	 0.329848	 -0.111976
O	 3.218069	 -0.352733	 0.498311
H	 2.826189	 1.128785	 -0.762380

5 3 2 1 F
