%nprocshared=4
%mem=2GB
#HF/cc-pVTZ nosymm scf=tight opt=ModRedundant

Mol

0 1
H	 -3.436473	 1.252944	 -1.023892
O	 -3.458596	 0.315260	 -0.960865
C	 -3.176635	 -0.080824	 0.355601
C	 -1.763371	 0.265266	 0.799691
H	 -3.321825	 -1.153438	 0.379502
H	 -3.895468	 0.357385	 1.043382
C	 -0.673390	 -0.426948	 -0.013392
H	 -1.631049	 1.344913	 0.747560
H	 -1.664587	 -0.001624	 1.849167
C	 0.737842	 -0.043159	 0.423759
H	 -0.806103	 -0.190518	 -1.063345
H	 -0.797221	 -1.503753	 0.074146
C	 1.786495	 -1.080157	 0.026256
H	 0.989277	 0.921873	 -0.005640
H	 0.758087	 0.088811	 1.503588
C	 1.661721	 -2.427818	 0.739061
H	 2.779000	 -0.672404	 0.203795
H	 1.717380	 -1.250050	 -1.044715
C	 1.930461	 -2.382661	 2.241354
H	 2.359561	 -3.123035	 0.282477
H	 0.669886	 -2.836028	 0.562855
H	 2.913911	 -1.972794	 2.448505
H	 1.892072	 -3.378179	 2.668802
H	 1.202316	 -1.775853	 2.765943

13 10 7 11 F
