%nprocshared=4
%mem=2GB
#HF/cc-pVTZ nosymm scf=tight opt=ModRedundant

Mol

0 1
H	 2.142322	 -1.071901	 0.896456
C	 1.362745	 -0.351770	 1.079492
O	 0.462329	 -0.453336	 -0.000137
H	 1.798209	 0.638085	 1.132186
H	 0.875067	 -0.586218	 2.017278
C	 -0.590565	 0.341382	 0.000062
O	 -1.693898	 -0.053880	 0.000252
H	 -0.340426	 1.403822	 0.000200

2 3 6 7 F
