%nprocshared=4
%mem=2GB
#HF/6-31G* nosymm scf=tight opt=ModRedundant

Mol

0 1
O	 0.794480	 0.044905	 -0.759031
C	 1.705091	 0.115954	 0.001797
C	 1.867376	 1.156633	 1.082777
O	 2.721346	 -0.737485	 -0.000216
C	 0.722804	 2.164240	 1.131010
H	 1.968474	 0.630026	 2.027859
H	 2.820595	 1.651167	 0.916857
C	 0.912394	 3.205572	 2.234978
H	 -0.213272	 1.635214	 1.279612
H	 0.640385	 2.658216	 0.167941
C	 -0.227277	 4.223908	 2.298236
H	 0.997965	 2.703768	 3.197717
H	 1.853849	 3.730984	 2.081724
C	 -0.036680	 5.264838	 3.400683
H	 -1.168180	 3.700820	 2.453868
H	 -0.313449	 4.726633	 1.337518
H	 0.018406	 4.795019	 4.378666
H	 -0.859988	 5.972118	 3.419891
H	 0.880242	 5.828709	 3.253670
C	 4.024888	 -0.184556	 -0.001949
H	 4.179030	 0.422472	 -0.882452
H	 4.701782	 -1.024608	 -0.003642
H	 4.181981	 0.421185	 0.878906

1 2 4 20 F
