%nprocshared=1
%mem=2GB
#HF/6-31G* nosymm scf=tight opt=ModRedundant

Mol

0 1
O	 2.862325	 1.357334	 0.000267
C	 2.843464	 0.164689	 -0.000222
C	 1.546494	 -0.624492	 -0.000609
C	 4.124123	 -0.644674	 -0.000428
C	 0.291004	 0.242674	 0.000989
H	 1.557904	 -1.283758	 -0.867573
H	 1.558622	 -1.285963	 0.864672
C	 -0.994322	 -0.586602	 0.000262
H	 0.309117	 0.896430	 -0.865270
H	 0.309661	 0.894078	 0.869017
C	 -2.259874	 0.272531	 0.000494
H	 -1.004862	 -1.240012	 -0.870939
H	 -1.005220	 -1.241071	 0.870675
C	 -3.413265	 -0.348856	 0.790165
H	 -2.578561	 0.443306	 -1.026294
H	 -2.028771	 1.252754	 0.413713
C	 -4.673944	 0.515060	 0.785567
H	 -3.645978	 -1.328238	 0.377274
H	 -3.096399	 -0.518645	 1.817115
H	 -5.035742	 0.675087	 -0.226185
H	 -5.473420	 0.048100	 1.352566
H	 -4.482589	 1.489999	 1.224909
H	 4.165367	 -1.288615	 -0.874074
H	 4.976217	 0.020734	 -0.001915
H	 4.166763	 -1.286207	 0.874930

15 11 8 12 F
