%nprocshared=4
%mem=2GB
#HF/cc-pVTZ nosymm scf=tight 
prop=(read,field)

Mol

0 1
H	 -3.642803	 0.223764	 0.000000
C	 -2.571694	 0.154940	 0.000000
C	 -1.957430	 -1.086193	 0.000000
C	 -1.807010	 1.303726	 0.000000
H	 -2.551343	 -1.979690	 0.000000
C	 -0.582569	 -1.174355	 -0.000000
H	 -2.279784	 2.266745	 0.000000
C	 -0.427070	 1.213345	 -0.000000
H	 -0.094754	 -2.127617	 -0.000000
C	 0.197058	 -0.024122	 -0.000000
H	 0.151559	 2.115193	 -0.000000
C	 1.690191	 -0.173294	 -0.000000
C	 2.552301	 1.068247	 0.000000
O	 2.189365	 -1.253195	 0.000000
H	 2.352207	 1.674319	 -0.875568
H	 3.587612	 0.766815	 0.000000
H	 2.352207	 1.674319	 0.875568

@grid.dat /N
