%nprocshared=4
%mem=2GB
#HF/cc-pVTZ nosymm scf=tight opt=ModRedundant

Mol

0 1
H	 0.185110	 -1.156650	 -1.344572
C	 -0.613279	 -1.402782	 -0.648241
O	 -1.401606	 -0.295183	 -0.366624
H	 -1.246649	 -2.153951	 -1.097101
H	 -0.166921	 -1.816057	 0.254451
C	 -0.718530	 0.758693	 0.228682
C	 0.718529	 0.758687	 -0.228709
H	 -1.176498	 1.708665	 -0.046615
H	 -0.748705	 0.673525	 1.312779
O	 1.401606	 -0.295166	 0.366636
H	 0.748705	 0.673477	 -1.312803
H	 1.176496	 1.708671	 0.046552
C	 2.714315	 -0.441627	 -0.061017
H	 2.765292	 -0.641548	 -1.128869
H	 3.305661	 0.447341	 0.150952
H	 3.143725	 -1.278506	 0.470147

2 3 6 7 F
