%nprocshared=4
%mem=2GB
#HF/cc-pVTZ nosymm scf=tight opt=ModRedundant

Mol

0 1
O	 -2.374409	 1.338660	 -0.336961
C	 -2.104891	 0.204655	 -0.107126
C	 -0.881910	 -0.448129	 -0.720509
C	 -2.949910	 -0.638219	 0.818225
C	 -1.265518	 -1.306617	 -1.932402
H	 -0.428657	 -1.073098	 0.038495
H	 -0.161056	 0.306619	 -1.016464
C	 -0.055272	 -1.990827	 -2.564596
H	 -1.992258	 -2.042068	 -1.611172
H	 -1.755791	 -0.687425	 -2.679753
C	 -0.371218	 -2.814856	 -3.814021
H	 0.420248	 -2.629573	 -1.824419
H	 0.676988	 -1.232180	 -2.826996
C	 -1.242416	 -4.043390	 -3.563828
H	 0.566598	 -3.137024	 -4.255625
H	 -0.849427	 -2.177075	 -4.552862
H	 -0.790825	 -4.696488	 -2.824153
H	 -1.368378	 -4.615720	 -4.475608
H	 -2.230353	 -3.776170	 -3.209070
H	 -3.440322	 -1.417144	 0.243099
H	 -3.694377	 -0.025850	 1.303346
H	 -2.331085	 -1.129829	 1.560495

6 3 2 1 F
