%nprocshared=4
%mem=2GB
#HF/cc-pVTZ nosymm scf=tight opt=ModRedundant

Mol

0 1
H	 2.808338	 0.364424	 1.557860
O	 2.110845	 0.905066	 1.236512
C	 1.135873	 0.113391	 0.608264
C	 0.027642	 1.012027	 0.090274
H	 0.714697	 -0.598526	 1.313638
H	 1.576794	 -0.457346	 -0.204330
C	 -1.138737	 0.285728	 -0.581921
H	 0.464661	 1.708096	 -0.618252
H	 -0.340737	 1.603071	 0.925246
C	 -1.933983	 -0.631436	 0.343653
H	 -0.763151	 -0.285569	 -1.422081
H	 -1.808359	 1.035291	 -0.992333
H	 -2.789188	 -1.049673	 -0.174718
H	 -1.335629	 -1.461368	 0.700418
H	 -2.305435	 -0.092167	 1.209725

2 3 4 8 F
