%nprocshared=4
%mem=2GB
#HF/cc-pVTZ nosymm scf=tight opt=ModRedundant

Mol

0 1
H	 2.366931	 -1.864337	 -0.668574
N	 1.386548	 -1.686451	 -0.679296
C	 1.107733	 -0.390071	 -1.263680
C	 0.830879	 -1.800297	 0.654163
H	 1.515745	 -0.358513	 -2.266617
H	 1.555086	 0.426231	 -0.693465
C	 -0.393889	 -0.175750	 -1.320894
H	 1.038275	 -2.790622	 1.040939
H	 1.260740	 -1.073094	 1.345548
C	 -0.670381	 -1.584128	 0.594436
H	 -0.829712	 -0.897662	 -2.017666
H	 -0.603164	 0.816453	 -1.702806
N	 -0.976577	 -0.298712	 -0.000000
H	 -1.079577	 -1.610272	 1.597429
H	 -1.125252	 -2.403066	 0.029614
C	 -2.391156	 -0.021003	 -0.000000
H	 -2.853954	 -0.458728	 -0.875714
H	 -2.853954	 -0.458728	 0.875714
H	 -2.614037	 1.049773	 -0.000000

7 13 16 19 F
