%nprocshared=1
%mem=2GB
#HF/6-31G* nosymm scf=tight 

Mol

0 1
H	 -1.465381	 -1.538504	 1.269563
C	 -2.114582	 -1.083215	 0.524317
O	 -1.392607	 -0.295399	 -0.366433
H	 -2.594067	 -1.865878	 -0.047236
H	 -2.880257	 -0.505524	 1.040498
C	 -0.719715	 0.768384	 0.229244
C	 0.719720	 0.768376	 -0.229267
H	 -1.185038	 1.714362	 -0.050570
H	 -0.750528	 0.687237	 1.313896
O	 1.392611	 -0.295398	 0.366430
H	 0.750534	 0.687200	 -1.313918
H	 1.185043	 1.714359	 0.050526
C	 2.706965	 -0.449871	 -0.062409
H	 2.756559	 -0.644779	 -1.131878
H	 3.305899	 0.433456	 0.155466
H	 3.125548	 -1.294566	 0.467107

3 6 7 11 F
7 10 13 14 F
