%nprocshared=4
%mem=2GB
#HF/cc-pVTZ nosymm scf=tight opt=ModRedundant

Mol

0 1
O	 -0.427360	 -1.392182	 -0.665010
C	 0.595354	 -1.297218	 -0.076775
C	 1.246364	 -0.005813	 0.348416
O	 1.317782	 -2.342573	 0.292610
C	 0.453207	 1.232821	 -0.049003
H	 1.394842	 -0.066917	 1.419758
H	 2.239873	 0.009843	 -0.088647
C	 -0.998367	 1.217982	 0.432195
H	 0.481498	 1.345443	 -1.127236
H	 0.951413	 2.105557	 0.354893
C	 -2.032671	 0.880103	 -0.640400
H	 -1.227855	 2.199014	 0.837257
H	 -1.097591	 0.520018	 1.260616
C	 -1.664165	 -0.356241	 -1.456148
H	 -2.998717	 0.721961	 -0.166463
H	 -2.158653	 1.720570	 -1.316625
C	 -0.447580	 -0.151340	 -2.354318
H	 -2.514425	 -0.649527	 -2.067198
H	 -1.474397	 -1.188075	 -0.781681
C	 -0.086827	 -1.390160	 -3.167313
H	 -0.635786	 0.679409	 -3.028970
H	 0.403854	 0.139134	 -1.744777
H	 0.779996	 -1.211067	 -3.793034
H	 -0.906051	 -1.685819	 -3.814280
H	 0.140797	 -2.230562	 -2.519919
C	 0.824678	 -3.623490	 -0.043565
H	 -0.139967	 -3.792406	 0.411591
H	 1.544729	 -4.329140	 0.337866
H	 0.731980	 -3.727573	 -1.114467

11 8 5 9 F
