%nprocshared=4
%mem=2GB
#HF/cc-pVTZ nosymm scf=tight 
prop=(read,field)

Mol

0 1
H	 -3.162295	 0.493233	 -0.000107
C	 -2.364013	 -0.234699	 0.000005
O	 -1.158843	 0.454662	 -0.000087
H	 -2.464419	 -0.863588	 -0.882153
H	 -2.464432	 -0.863331	 0.882345
C	 -0.028716	 -0.359666	 0.000037
C	 1.212742	 0.509342	 -0.000053
H	 -0.034260	 -1.007019	 -0.877198
H	 -0.034300	 -1.006808	 0.877430
C	 2.497787	 -0.311030	 0.000090
H	 1.182084	 1.155395	 -0.870456
H	 1.182064	 1.155557	 0.870244
H	 2.560381	 -0.947911	 -0.876010
H	 3.367830	 0.333986	 -0.000109
H	 2.560504	 -0.947517	 0.876457

@grid.dat /N
