%nprocshared=4
%mem=2GB
#HF/cc-pVTZ nosymm scf=tight opt=ModRedundant

Mol

0 1
O	 -2.817697	 1.304178	 0.001046
C	 -2.664672	 0.129869	 0.003507
C	 -3.797908	 -0.860100	 -0.001145
O	 -1.481217	 -0.452708	 0.001092
H	 -4.408836	 -0.679689	 -0.875387
H	 -3.443486	 -1.878443	 -0.002770
H	 -4.412123	 -0.683688	 0.871605
C	 -0.332055	 0.384012	 -0.000250
C	 0.892252	 -0.506059	 -0.000295
H	 -0.360822	 1.020205	 -0.874146
H	 -0.359817	 1.021310	 0.872861
C	 2.188199	 0.299473	 -0.001416
H	 0.857046	 -1.152781	 -0.871031
H	 0.857910	 -1.151798	 0.871202
C	 2.075788	 1.611505	 -0.772819
H	 2.484003	 0.511825	 1.022978
H	 2.987192	 -0.299827	 -0.430862
C	 3.370951	 2.416213	 -0.775184
H	 1.278840	 2.212017	 -0.343499
H	 1.780393	 1.400560	 -1.796699
H	 3.674488	 2.672358	 0.234322
H	 3.257478	 3.339996	 -1.330391
H	 4.180012	 1.854473	 -1.229851

16 12 9 13 F
