%nprocshared=4
%mem=2GB
#HF/cc-pVTZ nosymm scf=tight opt=ModRedundant

Mol

0 1
O	 -0.406316	 0.104456	 2.438929
C	 -0.846966	 0.612872	 1.465048
C	 -1.705041	 1.846597	 1.455975
O	 -0.637375	 0.157174	 0.243149
H	 -2.660144	 1.621661	 0.998917
H	 -1.849763	 2.193395	 2.466135
H	 -1.229463	 2.616125	 0.861651
C	 0.162530	 -1.009518	 0.097799
C	 1.587210	 -0.664190	 0.477086
H	 0.096803	 -1.356267	 -0.924704
H	 -0.233803	 -1.785900	 0.736810
C	 2.632831	 -1.633690	 -0.067442
H	 1.637549	 -0.647117	 1.562402
H	 1.806421	 0.344056	 0.139115
C	 4.051011	 -1.269542	 0.358911
H	 2.399608	 -2.638411	 0.274963
H	 2.574026	 -1.655480	 -1.149528
H	 4.771715	 -1.975216	 -0.037315
H	 4.149076	 -1.268537	 1.439547
H	 4.325094	 -0.282241	 0.002356

12 9 8 10 F
