%nprocshared=4
%mem=2GB
#HF/cc-pVTZ nosymm scf=tight opt=ModRedundant

Mol

0 1
H	 -3.338516	 -0.392053	 1.409238
C	 -3.367107	 -0.338281	 0.312344
C	 -2.683650	 0.863614	 -0.281143
O	 -3.916079	 -1.182251	 -0.307054
C	 -3.524744	 1.550768	 -1.360983
H	 -2.428491	 1.545238	 0.519868
H	 -1.756590	 0.506148	 -0.723953
C	 -4.789956	 2.214817	 -0.822038
H	 -2.908657	 2.295351	 -1.853296
H	 -3.790400	 0.825326	 -2.126068
C	 -5.641798	 2.853761	 -1.915610
H	 -4.510717	 2.970879	 -0.092996
H	 -5.387848	 1.484585	 -0.282859
C	 -6.900381	 3.527547	 -1.372262
H	 -5.037082	 3.575553	 -2.455684
H	 -5.927719	 2.092630	 -2.638262
C	 -7.827821	 4.111512	 -2.439380
H	 -6.614724	 4.314215	 -0.677756
H	 -7.459838	 2.800038	 -0.790848
C	 -7.244121	 5.287623	 -3.218572
H	 -8.743922	 4.435874	 -1.955707
H	 -8.114795	 3.326049	 -3.133643
H	 -6.941812	 6.086551	 -2.549005
H	 -6.377675	 4.999038	 -3.801388
H	 -7.976863	 5.694192	 -3.906144

3 5 8 12 F
