%nprocshared=1
%mem=2GB
#HF/6-31G* nosymm scf=tight 

Mol

0 1
H	 -3.161837	 0.500524	 -0.000234
C	 -2.367097	 -0.232926	 -0.000000
O	 -1.158440	 0.455814	 -0.000122
H	 -2.468853	 -0.861886	 -0.882833
H	 -2.468942	 -0.861421	 0.883154
C	 -0.029776	 -0.365156	 0.000148
C	 1.212217	 0.508981	 0.000007
H	 -0.036772	 -1.013236	 -0.877259
H	 -0.036869	 -1.012778	 0.877897
C	 1.040276	 1.768798	 0.847461
H	 2.047219	 -0.079284	 0.367943
H	 1.445187	 0.776013	 -1.026209
H	 0.830267	 1.523200	 1.884766
H	 1.940632	 2.373667	 0.829099
H	 0.223392	 2.384342	 0.481115

6 3 2 4 F
8 6 3 2 F
