%nprocshared=4
%mem=2GB
#HF/cc-pVTZ nosymm scf=tight opt=ModRedundant

Mol

0 1
H	 -3.498985	 1.253143	 -1.010443
O	 -3.458596	 0.315260	 -0.960865
C	 -3.176635	 -0.080824	 0.355601
C	 -1.763371	 0.265266	 0.799691
H	 -3.321825	 -1.153438	 0.379502
H	 -3.895468	 0.357385	 1.043382
C	 -1.638995	 1.640997	 1.447933
H	 -1.412916	 -0.499724	 1.490947
H	 -1.113016	 0.208518	 -0.069910
C	 -1.878385	 2.789444	 0.471340
H	 -0.654275	 1.739511	 1.891254
H	 -2.350190	 1.711043	 2.267568
C	 -3.134988	 2.598031	 -0.375630
H	 -1.945456	 3.718247	 1.029656
H	 -1.017130	 2.890091	 -0.185901
C	 -3.071821	 1.435323	 -1.367581
H	 -3.346466	 3.517863	 -0.916034
H	 -3.979656	 2.437562	 0.288753
C	 -2.052810	 1.609445	 -2.491165
H	 -4.055711	 1.306858	 -1.808300
H	 -2.859861	 0.515508	 -0.828662
H	 -2.236338	 2.525055	 -3.044386
H	 -2.108909	 0.784452	 -3.192222
H	 -1.037307	 1.647997	 -2.115836

7 4 3 2 F
