%nprocshared=4
%mem=2GB
#HF/cc-pVTZ nosymm scf=tight opt=ModRedundant

Mol

0 1
H	 3.083659	 -1.378387	 0.000000
O	 2.179005	 -1.633391	 0.000000
C	 1.366950	 -0.558201	 0.000000
C	 0.600678	 -0.208892	 1.101586
C	 1.312960	 0.206260	 -1.147477
H	 0.643953	 -0.805529	 1.994659
C	 -0.216594	 0.902281	 1.053442
H	 1.903554	 -0.060903	 -1.999924
C	 0.491208	 1.318248	 -1.187149
H	 -0.804918	 1.162863	 1.911810
C	 -0.276336	 1.672305	 -0.090635
C	 0.423969	 2.150088	 -2.417149
H	 -0.910924	 2.536917	 -0.131032
O	 1.035083	 1.939255	 -3.407861
H	 -0.252976	 3.007529	 -2.352806

4 3 2 1 F
