%nprocshared=4
%mem=2GB
#HF/cc-pVTZ nosymm scf=tight opt=ModRedundant

Mol

0 1
H	 3.698218	 0.674897	 -1.253532
N	 2.914263	 0.057872	 -1.235839
C	 1.774315	 0.677855	 -0.578876
H	 3.199719	 -0.767126	 -0.750823
C	 0.557507	 -0.234133	 -0.627680
H	 1.550954	 1.600627	 -1.103765
H	 1.978043	 0.949089	 0.457889
C	 -0.678115	 0.376691	 0.025731
H	 0.349557	 -0.477049	 -1.664577
H	 0.798445	 -1.173652	 -0.133984
C	 -1.900706	 -0.535531	 -0.022488
H	 -0.916294	 1.317635	 -0.465033
H	 -0.457542	 0.622391	 1.061999
C	 -3.220513	 0.226854	 0.028039
H	 -1.865036	 -1.134397	 -0.928236
H	 -1.857948	 -1.236381	 0.806820
H	 -3.309098	 0.911849	 -0.808725
H	 -4.066838	 -0.449485	 -0.008086
H	 -3.301685	 0.809374	 0.939860

12 8 11 15 F
