%nprocshared=4
%mem=2GB
#HF/cc-pVTZ nosymm scf=tight opt=ModRedundant

Mol

0 1
H	 0.930443	 -1.758876	 -0.842373
C	 0.257302	 -0.924106	 -1.046059
N	 -0.537714	 -0.645117	 0.000000
O	 0.262566	 -0.355300	 -2.091597
C	 -1.522613	 0.412524	 0.000000
H	 -0.434061	 -1.202358	 0.811617
H	 -2.150256	 0.356137	 -0.880771
H	 -1.005621	 1.357208	 0.000000
H	 -2.150256	 0.356137	 0.880771

6 3 5 7 F
