%nprocshared=4
%mem=2GB
#HF/cc-pVTZ nosymm scf=tight opt=ModRedundant

Mol

0 1
H	 -3.498985	 1.253143	 -1.010443
O	 -3.458596	 0.315260	 -0.960865
C	 -3.176635	 -0.080824	 0.355601
C	 -1.763371	 0.265266	 0.799691
H	 -3.321825	 -1.153438	 0.379502
H	 -3.895468	 0.357385	 1.043382
C	 -1.283751	 1.633279	 0.323426
H	 -1.712389	 0.215816	 1.886346
H	 -1.094503	 -0.508077	 0.429631
C	 -1.092319	 1.710019	 -1.189001
H	 -0.352058	 1.878567	 0.821115
H	 -2.002638	 2.387683	 0.634203
C	 -2.279137	 1.146740	 -1.968250
H	 -0.921502	 2.744719	 -1.470262
H	 -0.192226	 1.165682	 -1.467185
C	 -2.490068	 -0.360941	 -1.819072
H	 -2.163302	 1.388930	 -3.022183
H	 -3.181900	 1.654314	 -1.639606
C	 -1.381864	 -1.222994	 -2.418983
H	 -3.430132	 -0.624244	 -2.294179
H	 -2.605323	 -0.604282	 -0.766019
H	 -1.239718	 -0.997163	 -3.471063
H	 -1.627724	 -2.275770	 -2.338629
H	 -0.433567	 -1.071917	 -1.917472

7 4 3 2 F
