%nprocshared=4
%mem=2GB
#HF/cc-pVTZ nosymm scf=tight opt=ModRedundant

Mol

0 1
H	 2.614283	 2.028610	 0.296620
O	 3.358864	 1.662087	 -0.142800
C	 3.565468	 0.338079	 0.273842
C	 2.533667	 -0.637565	 -0.272227
H	 4.548038	 0.064914	 -0.086598
H	 3.593945	 0.282242	 1.360360
C	 1.114816	 -0.402372	 0.240993
H	 2.544552	 -0.580764	 -1.356576
H	 2.850574	 -1.642962	 -0.005497
C	 0.112179	 -0.155405	 -0.885312
H	 1.114202	 0.445642	 0.917658
H	 0.793892	 -1.265953	 0.821099
C	 -1.339427	 0.013251	 -0.432927
H	 0.417009	 0.723531	 -1.448142
H	 0.160568	 -0.989900	 -1.579391
C	 -1.619784	 1.273153	 0.384257
H	 -1.972294	 0.026526	 -1.316008
H	 -1.640315	 -0.861159	 0.139810
C	 -3.097365	 1.446723	 0.726363
H	 -1.276968	 2.143517	 -0.171091
H	 -1.046820	 1.255625	 1.306432
C	 -3.380288	 2.701706	 1.545427
H	 -3.676906	 1.478382	 -0.192173
H	 -3.443581	 0.574137	 1.273894
H	 -3.074482	 3.595048	 1.010956
H	 -4.436979	 2.795717	 1.768303
H	 -2.844211	 2.683103	 2.488627

10 7 4 8 F
