%nprocshared=4
%mem=2GB
#HF/6-31G* nosymm scf=tight opt=ModRedundant

Mol

0 1
H	 3.012738	 -2.295243	 -2.258853
C	 2.805668	 -1.868743	 -1.282651
C	 1.544116	 -1.007118	 -1.315094
H	 2.701875	 -2.690318	 -0.579466
H	 3.674170	 -1.287589	 -0.985647
C	 1.217350	 -0.386724	 0.039429
H	 0.693785	 -1.599516	 -1.638187
H	 1.668016	 -0.215180	 -2.051895
N	 0.000003	 0.397874	 -0.023260
H	 1.067906	 -1.177841	 0.769336
H	 2.073414	 0.199565	 0.389855
C	 -1.217365	 -0.386708	 0.039277
H	 -0.000031	 1.072115	 0.718656
C	 -2.452633	 0.504241	 -0.042481
H	 -1.215291	 -1.074557	 -0.802042
H	 -1.269739	 -1.003477	 0.942735
C	 -3.758029	 -0.289423	 -0.010781
H	 -2.394220	 1.093569	 -0.952170
H	 -2.440793	 1.210787	 0.785871
H	 -3.816659	 -0.981993	 -0.845726
H	 -4.617837	 0.370165	 -0.069296
H	 -3.847478	 -0.867502	 0.904682

10 6 9 12 F
