%nprocshared=1
%mem=2GB
#HF/6-31G* nosymm scf=tight 

Mol

0 1
O	 -2.439739	 -0.935931	 -0.423848
C	 -1.921153	 0.064240	 -0.045697
C	 -2.624470	 1.379923	 0.150949
O	 -0.632575	 0.154573	 0.251549
H	 -2.168117	 2.136577	 -0.476876
H	 -3.669540	 1.273223	 -0.098610
H	 -2.519365	 1.700893	 1.180846
C	 0.160891	 -1.019931	 0.106212
C	 1.589627	 -0.672828	 0.480843
H	 0.089836	 -1.367806	 -0.916050
H	 -0.238459	 -1.792301	 0.749618
C	 2.223022	 -1.642952	 1.479877
H	 1.582619	 0.330897	 0.900865
H	 2.189269	 -0.629016	 -0.424567
C	 3.650903	 -1.248702	 1.855012
H	 1.610752	 -1.682303	 2.378585
H	 2.220431	 -2.643347	 1.059685
H	 4.077919	 -1.951880	 2.562988
H	 3.680825	 -0.262424	 2.309586
H	 4.294577	 -1.228648	 0.980163

16 12 9 8 F
2 4 8 10 F
1 2 4 8 F
