%nprocshared=4
%mem=2GB
#HF/cc-pVTZ nosymm scf=tight opt=ModRedundant

Mol

0 1
O	 -2.081319	 -0.951530	 -0.502732
N	 -1.613558	 0.006676	 0.014756
C	 -0.329345	 -0.171618	 0.743966
O	 -2.068523	 1.100482	 -0.024385
C	 0.835904	 0.041968	 -0.213982
H	 -0.346048	 -1.174374	 1.137184
H	 -0.333613	 0.555559	 1.538590
C	 2.177039	 -0.130175	 0.494460
H	 0.754456	 -0.665923	 -1.030569
H	 0.765464	 1.037260	 -0.637266
C	 2.256918	 -1.434340	 1.280114
H	 2.340458	 0.707238	 1.166375
H	 2.978547	 -0.099628	 -0.237701
H	 1.487579	 -1.478742	 2.042901
H	 2.128128	 -2.291512	 0.628665
H	 3.217297	 -1.532150	 1.771303

11 8 5 9 F
