%nprocshared=4
%mem=2GB
#HF/cc-pVTZ nosymm scf=tight opt=ModRedundant

Mol

0 1
H	 6.830139	 -7.991321	 -3.594019
O	 6.919685	 -7.395448	 -2.873778
C	 7.556133	 -6.217560	 -3.294236
C	 7.131778	 -4.985450	 -2.509053
H	 8.615147	 -6.388229	 -3.155158
H	 7.392759	 -6.056987	 -4.358180
C	 7.128493	 -5.177497	 -0.994142
H	 7.791470	 -4.164045	 -2.772223
H	 6.133650	 -4.706795	 -2.838431
C	 6.045853	 -6.147739	 -0.523655
H	 6.987023	 -4.216405	 -0.511140
H	 8.101684	 -5.547517	 -0.675911
C	 6.044012	 -6.434903	 0.978939
H	 5.071423	 -5.764720	 -0.816931
H	 6.172019	 -7.088338	 -1.052639
C	 7.262638	 -7.199681	 1.492561
H	 5.983313	 -5.487267	 1.506983
H	 5.140495	 -6.982261	 1.238191
C	 7.316364	 -8.641716	 0.994506
H	 7.254102	 -7.197465	 2.580399
H	 8.175159	 -6.692298	 1.194449
C	 7.088741	 -8.766407	 -0.508335
H	 8.280263	 -9.073570	 1.249415
H	 6.570690	 -9.231106	 1.521434
H	 7.838371	 -8.213642	 -1.064881
H	 7.135939	 -9.800979	 -0.828552
H	 6.116066	 -8.377286	 -0.790896

4 3 2 1 F
