%nprocshared=4
%mem=2GB
#HF/cc-pVTZ nosymm scf=tight opt=ModRedundant

Mol

0 1
O	 1.816773	 1.332945	 -0.963344
C	 0.781622	 1.719742	 -1.387478
C	 -0.518669	 0.958420	 -1.351787
O	 0.630629	 2.901797	 -1.962250
C	 -0.824290	 0.329213	 -0.000115
H	 -1.301960	 1.647247	 -1.650821
H	 -0.472151	 0.207303	 -2.133516
C	 -0.876455	 -1.194194	 -0.067402
H	 -1.768592	 0.714129	 0.367863
H	 -0.073215	 0.640626	 0.716962
C	 -2.136507	 -1.721316	 -0.747756
H	 -0.002293	 -1.564016	 -0.598743
H	 -0.815471	 -1.604068	 0.938343
C	 -2.188468	 -3.243855	 -0.815473
H	 -2.197940	 -1.313331	 -1.752709
H	 -3.010218	 -1.353894	 -0.216917
H	 -1.344830	 -3.640300	 -1.370757
H	 -3.094270	 -3.584186	 -1.303767
H	 -2.163931	 -3.681180	 0.177190
C	 1.774850	 3.725117	 -2.063383
H	 2.168391	 3.953019	 -1.083894
H	 1.449161	 4.628457	 -2.553025
H	 2.542901	 3.240436	 -2.647673

9 5 3 6 F
