%nprocshared=4
%mem=2GB
#HF/6-31G* nosymm scf=tight opt=ModRedundant

Mol

0 1
H	 -3.161837	 0.500524	 -0.000234
C	 -2.367097	 -0.232926	 -0.000000
O	 -1.158440	 0.455814	 -0.000122
H	 -2.468853	 -0.861886	 -0.882833
H	 -2.468942	 -0.861421	 0.883154
C	 -0.029776	 -0.365156	 0.000148
C	 1.212217	 0.508981	 0.000007
H	 -0.036772	 -1.013236	 -0.877259
H	 -0.036869	 -1.012778	 0.877897
C	 2.057742	 0.323226	 1.259158
H	 1.798320	 0.274155	 -0.883170
H	 0.903690	 1.545534	 -0.095219
H	 2.397568	 -0.703741	 1.360555
H	 2.936539	 0.958726	 1.232679
H	 1.496311	 0.576021	 2.154309

11 7 6 8 F
