%nprocshared=4
%mem=2GB
#HF/cc-pVTZ nosymm scf=tight opt=ModRedundant

Mol

0 1
O	 0.254826	 0.735672	 -1.781346
C	 0.781622	 1.719742	 -1.387478
C	 1.695899	 1.805104	 -0.192299
O	 0.630629	 2.901797	 -1.962250
C	 2.755205	 0.713093	 -0.150979
H	 2.148309	 2.791324	 -0.204346
H	 1.069443	 1.778762	 0.693308
C	 3.565155	 0.640847	 -1.442017
H	 2.277181	 -0.241445	 0.037761
H	 3.416966	 0.888890	 0.689532
C	 2.787911	 0.028679	 -2.603744
H	 3.894963	 1.639518	 -1.719748
H	 4.468839	 0.059933	 -1.271335
C	 3.597193	 -0.043103	 -3.894217
H	 1.885585	 0.608668	 -2.775728
H	 2.459403	 -0.969441	 -2.328067
H	 3.911456	 0.944613	 -4.214984
H	 3.016677	 -0.481828	 -4.697494
H	 4.489609	 -0.646300	 -3.763902
C	 1.774850	 3.725117	 -2.063383
H	 2.168391	 3.953019	 -1.083894
H	 1.449161	 4.628457	 -2.553025
H	 2.542901	 3.240436	 -2.647673

1 2 4 20 F
