%nprocshared=4
%mem=2GB
#HF/cc-pVTZ nosymm scf=tight opt=ModRedundant

Mol

0 1
O	 2.242271	 -2.715284	 2.551283
C	 2.133332	 -2.946078	 1.390982
C	 0.788659	 -2.850365	 0.697626
C	 3.324433	 -3.326519	 0.544040
C	 0.483677	 -1.404858	 0.284906
H	 0.035419	 -3.195817	 1.394336
H	 0.768283	 -3.495116	 -0.174581
C	 1.630207	 -0.772146	 -0.501001
H	 -0.425255	 -1.404263	 -0.303371
H	 0.284456	 -0.805284	 1.169848
C	 2.907848	 -0.545876	 0.309149
H	 1.296978	 0.175263	 -0.917357
H	 1.866584	 -1.410232	 -1.348100
C	 3.373802	 0.906639	 0.372125
H	 3.699140	 -1.146831	 -0.127906
H	 2.764321	 -0.923458	 1.318191
H	 3.519798	 1.311927	 -0.623875
H	 4.316899	 0.983758	 0.900700
H	 2.661122	 1.540651	 0.885346
H	 3.220634	 -4.358938	 0.225706
H	 4.235452	 -3.214470	 1.111541
H	 3.367029	 -2.717898	 -0.352261

12 8 11 15 F
