%nprocshared=4
%mem=2GB
#HF/6-31G* nosymm scf=tight opt=ModRedundant

Mol

0 1
H	 0.951936	 0.089842	 -1.865366
O	 1.198033	 0.831406	 -1.329295
C	 0.709265	 0.639550	 -0.033818
C	 -0.793441	 0.596080	 0.058728
H	 1.086731	 1.466170	 0.557301
H	 1.120478	 -0.269284	 0.404303
C	 -1.530462	 -0.493172	 -0.025500
H	 -1.268471	 1.554324	 0.202247
H	 -1.092586	 -1.461565	 -0.186463
H	 -2.602122	 -0.450675	 0.050101

5 3 4 7 F
