%nprocshared=1
%mem=2GB
#HF/6-31G* nosymm scf=tight 

Mol

0 1
O	 -0.675634	 0.839377	 -2.664669
C	 -1.250910	 0.681865	 -1.630898
C	 -0.889235	 -0.467034	 -0.705952
C	 -2.338963	 1.628539	 -1.175568
C	 0.379448	 -0.143569	 0.099626
H	 -0.713415	 -1.342256	 -1.321888
H	 -1.711363	 -0.687841	 -0.031135
C	 1.631333	 -0.777471	 -0.511575
H	 0.482768	 0.934507	 0.149241
H	 0.263088	 -0.495696	 1.123449
C	 2.915987	 -0.544314	 0.291766
H	 1.766672	 -0.399098	 -1.523130
H	 1.471257	 -1.849544	 -0.605828
C	 3.373361	 0.914346	 0.347591
H	 3.708709	 -1.142521	 -0.150311
H	 2.780642	 -0.921148	 1.303579
H	 3.506512	 1.320010	 -0.651625
H	 4.322697	 0.999599	 0.867103
H	 2.660624	 1.545032	 0.868198
H	 -3.291682	 1.105990	 -1.152473
H	 -2.406509	 2.468301	 -1.853080
H	 -2.143541	 1.982432	 -0.167414

6 3 2 1 F
3 5 8 12 F
12 8 11 15 F
