%nprocshared=4
%mem=2GB
#HF/cc-pVTZ nosymm scf=tight opt=ModRedundant

Mol

0 1
H	 2.342730	 0.877684	 -1.045694
C	 2.360424	 0.000000	 -0.411793
C	 1.173749	 0.000000	 0.526870
H	 3.286567	 0.000000	 0.151574
H	 2.342730	 -0.877684	 -1.045694
O	 0.000000	 0.000000	 -0.223739
H	 1.203779	 0.876757	 1.172538
H	 1.203779	 -0.876757	 1.172538
C	 -1.173749	 0.000000	 0.526870
C	 -1.313250	 -1.334712	 1.225703
H	 -2.031076	 0.177703	 -0.121130
H	 -1.149386	 0.807428	 1.257594
H	 -1.352807	 -2.139424	 0.502276
H	 -2.221566	 -1.357434	 1.816947
H	 -0.470185	 -1.509033	 1.882458

11 9 6 3 F
