%nprocshared=4
%mem=2GB
#HF/cc-pVTZ nosymm scf=tight opt=ModRedundant

Mol

0 1
O	 -0.562652	 0.026244	 0.531820
C	 0.485107	 0.171416	 -0.000134
C	 1.606966	 -0.836201	 0.000174
O	 0.813719	 1.257779	 -0.677198
C	 2.988788	 -0.202529	 -0.000115
H	 1.465110	 -1.474645	 -0.864821
H	 1.465209	 -1.474077	 0.865596
H	 3.131767	 0.419673	 -0.873407
H	 3.750876	 -0.972315	 0.000098
H	 3.131883	 0.420264	 0.872742
C	 -0.147638	 2.300032	 -0.765454
C	 0.458674	 3.419752	 -1.578535
H	 -0.405152	 2.628103	 0.231744
H	 -1.045067	 1.914362	 -1.228275
H	 1.356844	 3.797115	 -1.106031
H	 -0.250949	 4.234060	 -1.665540
H	 0.713229	 3.079353	 -2.574377

4 2 3 6 F
