%nprocshared=1
%mem=2GB
#HF/6-31G* nosymm scf=tight 

Mol

0 1
O	 -0.682937	 1.318834	 -0.186099
C	 -0.860635	 0.152188	 -0.042321
C	 -2.173363	 -0.477127	 0.338347
O	 0.083258	 -0.765189	 -0.202595
H	 -2.477673	 -1.180929	 -0.427595
H	 -2.923125	 0.290956	 0.455536
H	 -2.058825	 -1.029004	 1.264191
C	 0.003457	 -1.962133	 0.567959
C	 -0.914435	 -2.981484	 -0.080921
H	 -0.323934	 -1.719526	 1.567507
H	 1.019835	 -2.326601	 0.608439
H	 -0.895336	 -3.906691	 0.486844
H	 -1.934744	 -2.620069	 -0.107725
H	 -0.590559	 -3.196380	 -1.093511

10 8 4 2 F
