%nprocshared=4
%mem=2GB
#HF/6-31G* nosymm scf=tight opt=ModRedundant

Mol

0 1
O	 0.557120	 1.273517	 0.435775
C	 0.486307	 0.169203	 0.000779
C	 1.608116	 -0.841643	 0.000302
O	 -0.610159	 -0.328094	 -0.554256
C	 2.990107	 -0.200498	 -0.000684
H	 1.468623	 -1.481519	 -0.865924
H	 1.469683	 -1.481289	 0.866878
H	 3.129736	 0.423364	 -0.875135
H	 3.757882	 -0.966877	 -0.001197
H	 3.130964	 0.423383	 0.873533
C	 -1.753700	 0.517390	 -0.624058
C	 -2.860268	 -0.270235	 -1.292985
H	 -1.500797	 1.406796	 -1.184933
H	 -2.028455	 0.822220	 0.376532
H	 -2.567484	 -0.572742	 -2.291948
H	 -3.754910	 0.339496	 -1.367099
H	 -3.098154	 -1.160524	 -0.721976

4 2 3 6 F
