%nprocshared=4
%mem=2GB
#HF/cc-pVTZ nosymm scf=tight opt=ModRedundant

Mol

0 1
H	 6.830139	 -7.991321	 -3.594019
O	 6.919685	 -7.395448	 -2.873778
C	 7.556133	 -6.217560	 -3.294236
C	 7.290432	 -5.871746	 -4.751803
H	 7.170758	 -5.430918	 -2.659682
H	 8.627697	 -6.280365	 -3.114633
C	 5.821236	 -5.957870	 -5.159105
H	 7.664975	 -4.870601	 -4.943072
H	 7.874913	 -6.550653	 -5.368135
C	 5.288343	 -7.389925	 -5.150208
H	 5.698193	 -5.532718	 -6.149614
H	 5.223440	 -5.350719	 -4.481392
C	 3.800701	 -7.528002	 -5.479014
H	 5.867199	 -7.990479	 -5.847694
H	 5.463498	 -7.817091	 -4.166685
C	 2.851071	 -6.933783	 -4.440337
H	 3.616079	 -7.042563	 -6.433367
H	 3.561866	 -8.579115	 -5.624870
C	 2.855089	 -7.699831	 -3.119896
H	 1.840898	 -6.922737	 -4.843941
H	 3.111898	 -5.898055	 -4.244791
C	 4.258583	 -7.981648	 -2.593896
H	 2.298746	 -7.135810	 -2.376297
H	 2.323801	 -8.639100	 -3.248617
H	 4.805271	 -7.059947	 -2.424083
H	 4.225272	 -8.523478	 -1.655590
H	 4.829031	 -8.577182	 -3.299078

4 3 2 1 F
