%nprocshared=4
%mem=2GB
#HF/cc-pVTZ nosymm scf=tight opt=ModRedundant

Mol

0 1
H	 -1.212672	 -3.292205	 -1.515140
O	 -1.319698	 -2.574631	 -0.909045
C	 -0.220152	 -1.827121	 -0.943136
C	 -0.310616	 -0.658853	 0.000791
O	 0.696211	 -2.087838	 -1.643333
C	 0.926581	 0.227233	 0.000178
H	 -0.507258	 -1.061590	 0.989155
H	 -1.198597	 -0.097211	 -0.270808
C	 2.220156	 -0.582071	 -0.000088
H	 0.899945	 0.878221	 -0.866390
H	 0.900542	 0.878581	 0.866486
C	 3.466689	 0.296012	 -0.000457
H	 2.239073	 -1.234095	 -0.869382
H	 2.239505	 -1.233985	 0.869270
H	 3.493549	 0.935857	 -0.875887
H	 4.368821	 -0.304526	 -0.001199
H	 3.494559	 0.935166	 0.875458

7 4 6 10 F
