%nprocshared=4
%mem=2GB
#HF/cc-pVTZ nosymm scf=tight opt=ModRedundant

Mol

0 1
O	 2.365569	 2.130822	 0.134221
C	 1.292431	 2.560722	 0.405644
C	 0.046609	 1.698423	 0.391442
C	 1.097913	 4.010905	 0.786901
C	 0.288398	 0.247429	 0.000314
H	 -0.406248	 1.761266	 1.378376
H	 -0.667259	 2.165641	 -0.283173
C	 -0.993089	 -0.581367	 -0.000217
H	 1.009270	 -0.189137	 0.682126
H	 0.748166	 0.215640	 -0.980877
C	 -2.258482	 0.271340	 0.000669
H	 -1.002280	 -1.233920	 -0.870484
H	 -1.002061	 -1.235367	 0.868958
C	 -3.544441	 -0.550271	 -0.000253
H	 -2.250545	 0.925250	 -0.867923
H	 -2.250598	 0.923423	 0.870642
C	 -4.804551	 0.308747	 0.000556
H	 -3.553737	 -1.201524	 -0.870151
H	 -3.553831	 -1.203282	 0.868313
H	 -4.842050	 0.949078	 -0.874436
H	 -5.698404	 -0.304480	 -0.000254
H	 -4.842277	 0.947103	 0.876982
H	 0.666813	 4.082182	 1.779433
H	 2.046019	 4.525680	 0.764686
H	 0.407115	 4.488391	 0.100718

9 5 8 12 F
