%nprocshared=4
%mem=2GB
#HF/6-31G* nosymm scf=tight opt=ModRedundant

Mol

0 1
H	 -3.135461	 -1.215070	 0.001379
O	 -2.310168	 -0.871793	 -0.309793
C	 -2.026376	 0.340750	 0.341611
C	 -0.673256	 0.843270	 -0.132153
H	 -2.792215	 1.080697	 0.115987
H	 -2.013526	 0.200402	 1.421792
C	 0.486613	 -0.083066	 0.235839
H	 -0.715586	 0.970948	 -1.210718
H	 -0.508072	 1.829858	 0.297090
C	 1.111905	 -0.767346	 -0.980955
H	 0.133895	 -0.833897	 0.935378
H	 1.252080	 0.490752	 0.757024
C	 2.274775	 -1.688548	 -0.613813
H	 0.348621	 -1.341490	 -1.501986
H	 1.458449	 -0.012477	 -1.684178
H	 1.951899	 -2.475503	 0.061718
H	 2.696758	 -2.161446	 -1.495426
H	 3.071021	 -1.137528	 -0.120984

10 7 4 8 F
