%nprocshared=1
%mem=2GB
#HF/6-31G* nosymm scf=tight 

Mol

0 1
H	 -2.646374	 -0.642757	 1.268656
C	 -2.083525	 -0.384536	 0.393091
O	 -0.807605	 -0.127164	 0.768327
F	 -2.118945	 -1.383102	 -0.486752
F	 -2.621877	 0.670592	 -0.209486
C	 -0.372786	 1.184756	 0.718467
C	 0.989348	 1.176177	 0.036794
Cl	 -0.251343	 1.871846	 2.346463
H	 -1.033031	 1.813621	 0.147170
F	 1.463176	 2.400316	 -0.058648
F	 0.850661	 0.694832	 -1.182432
F	 1.859352	 0.435537	 0.679070

10 7 6 9 F
9 6 3 2 F
