%nprocshared=4
%mem=2GB
#HF/cc-pVTZ nosymm scf=tight opt=ModRedundant

Mol

0 1
H	 0.757804	 0.187144	 2.364397
C	 -0.205767	 0.206113	 1.876667
O	 -0.000000	 0.000000	 0.518769
H	 -0.831726	 -0.572550	 2.307614
H	 -0.675625	 1.168861	 2.066943
C	 -1.165153	 0.000000	 -0.236961
H	 -1.229451	 0.882440	 -0.870223
H	 -2.002557	 0.000000	 0.445289
H	 -1.229451	 -0.882440	 -0.870223

2 3 6 7 F
