%nprocshared=4
%mem=2GB
#HF/cc-pVTZ nosymm scf=tight opt=ModRedundant

Mol

0 1
H	 -3.498985	 1.253143	 -1.010443
O	 -3.458596	 0.315260	 -0.960865
C	 -3.176635	 -0.080824	 0.355601
C	 -1.763371	 0.265266	 0.799691
H	 -3.321825	 -1.153438	 0.379502
H	 -3.895468	 0.357385	 1.043382
C	 -1.697178	 0.988260	 2.141787
H	 -1.173486	 -0.648966	 0.845296
H	 -1.308352	 0.881065	 0.027591
C	 -2.292379	 2.393166	 2.097655
H	 -0.664672	 1.040544	 2.469065
H	 -2.223402	 0.397445	 2.887798
C	 -3.659853	 2.438899	 1.418707
H	 -2.368589	 2.775294	 3.111095
H	 -1.610441	 3.057933	 1.571440
C	 -3.646021	 2.126037	 -0.078548
H	 -4.104983	 3.418834	 1.575033
H	 -4.315970	 1.727359	 1.912511
C	 -2.919320	 3.156610	 -0.939343
H	 -4.673038	 2.049130	 -0.422200
H	 -3.200738	 1.147093	 -0.236069
H	 -3.339499	 4.147340	 -0.797993
H	 -3.006607	 2.909079	 -1.991175
H	 -1.862988	 3.209076	 -0.704791

7 4 3 2 F
