%nprocshared=4
%mem=2GB
#HF/cc-pVTZ nosymm scf=tight opt=ModRedundant

Mol

0 1
O	 1.216069	 1.304886	 0.000821
C	 1.121787	 0.124983	 0.000110
C	 -0.170912	 -0.649867	 -0.000147
O	 2.167739	 -0.685178	 -0.000678
C	 -1.413045	 0.229353	 0.001137
H	 -0.152877	 -1.303435	 -0.866175
H	 -0.152278	 -1.305116	 0.864586
C	 -1.233343	 1.488029	 0.844789
H	 -2.256561	 -0.343001	 0.370505
H	 -1.659353	 0.502834	 -1.018708
C	 -2.473211	 2.375450	 0.854890
H	 -0.983457	 1.207652	 1.864684
H	 -0.386703	 2.057255	 0.470063
H	 -3.329795	 1.845140	 1.256910
H	 -2.317084	 3.260360	 1.460890
H	 -2.728652	 2.701017	 -0.147775
C	 3.449556	 -0.089977	 -0.000570
H	 3.585694	 0.522473	 -0.879546
H	 4.155805	 -0.904274	 -0.001389
H	 3.586173	 0.521118	 0.879272

9 5 3 6 F
