%nprocshared=4
%mem=2GB
#HF/cc-pVTZ nosymm scf=tight opt=ModRedundant

Mol

0 1
O	 -2.071633	 -1.227563	 -0.223463
C	 -1.652164	 -0.152425	 0.058082
C	 -0.327811	 0.006324	 0.778296
C	 -2.402515	 1.108629	 -0.298924
C	 0.795979	 0.357888	 -0.204009
H	 -0.404270	 0.775156	 1.539989
H	 -0.104614	 -0.934618	 1.264762
C	 2.151189	 0.508680	 0.480752
H	 0.554098	 1.281005	 -0.724627
H	 0.852367	 -0.418502	 -0.959260
C	 3.274198	 0.845943	 -0.494065
H	 2.087146	 1.283128	 1.240129
H	 2.390857	 -0.412813	 1.003197
H	 3.079914	 1.781814	 -1.007324
H	 3.383159	 0.073099	 -1.247197
H	 4.222837	 0.942366	 0.020899
H	 -3.240910	 0.874416	 -0.936711
H	 -1.747554	 1.818823	 -0.790984
H	 -2.760419	 1.579708	 0.610998

5 3 2 4 F
