%nprocshared=4
%mem=2GB
#HF/cc-pVTZ nosymm scf=tight opt=ModRedundant

Mol

0 1
O	 -1.278239	 1.034789	 -0.784693
C	 -1.204115	 0.062668	 -0.112312
C	 -2.386398	 -0.667698	 0.460323
O	 -0.068058	 -0.518372	 0.226882
H	 -2.382952	 -1.693172	 0.114333
H	 -3.296656	 -0.175702	 0.158400
H	 -2.312537	 -0.685191	 1.540100
C	 1.169086	 0.037484	 -0.230612
C	 1.317729	 -0.391463	 -1.676649
C	 2.307574	 -0.442886	 0.651260
H	 1.092476	 1.112376	 -0.168743
H	 0.485073	 -0.034520	 -2.269123
H	 2.232398	 0.014352	 -2.091867
H	 1.355209	 -1.471458	 -1.755016
H	 3.246745	 -0.032683	 0.298853
H	 2.162221	 -0.123698	 1.673825
H	 2.376716	 -1.524506	 0.626764

11 8 4 2 F
