%nprocshared=4
%mem=2GB
#HF/6-31G* nosymm scf=tight opt=ModRedundant

Mol

0 1
O	 1.846825	 1.296220	 0.000415
C	 1.705091	 0.115954	 0.001797
C	 0.381791	 -0.609817	 0.001258
O	 2.721346	 -0.737485	 -0.000216
C	 -0.823008	 0.326187	 0.001381
H	 0.371250	 -1.265087	 -0.865474
H	 0.370908	 -1.265746	 0.867490
C	 -2.078556	 -0.343949	 0.561361
H	 -1.008741	 0.670073	 -1.011256
H	 -0.587353	 1.212362	 0.582303
C	 -3.297163	 0.580611	 0.568062
H	 -2.307537	 -1.233829	 -0.023170
H	 -1.885169	 -0.688688	 1.576072
C	 -4.551056	 -0.089137	 1.128814
H	 -3.493242	 0.923837	 -0.445294
H	 -3.070290	 1.469611	 1.152309
H	 -4.823976	 -0.963079	 0.544046
H	 -5.396985	 0.591147	 1.120611
H	 -4.397480	 -0.413401	 2.154279
C	 4.024888	 -0.184556	 -0.001949
H	 4.179030	 0.422472	 -0.882452
H	 4.701782	 -1.024608	 -0.003642
H	 4.181981	 0.421185	 0.878906

9 5 3 6 F
