%nprocshared=4
%mem=2GB
#HF/cc-pVTZ nosymm scf=tight opt=ModRedundant

Mol

0 1
O	 -2.071633	 -1.227563	 -0.223463
C	 -1.652164	 -0.152425	 0.058082
C	 -0.327811	 0.006324	 0.778296
C	 -2.402515	 1.108629	 -0.298924
C	 0.188578	 -1.344535	 1.288146
H	 0.407037	 0.455628	 0.118561
H	 -0.488030	 0.673914	 1.615249
C	 -0.671714	 -1.918711	 2.409953
H	 1.211240	 -1.238024	 1.641009
H	 0.218165	 -2.040912	 0.457154
C	 -0.169184	 -3.268142	 2.911611
H	 -0.702735	 -1.214559	 3.236834
H	 -1.693881	 -2.022032	 2.057762
H	 0.839617	 -3.189928	 3.303068
H	 -0.157221	 -4.002096	 2.113152
H	 -0.802086	 -3.650961	 3.703625
H	 -3.240910	 0.874416	 -0.936711
H	 -1.747554	 1.818823	 -0.790984
H	 -2.760419	 1.579708	 0.610998

5 3 2 4 F
