%nprocshared=1
%mem=2GB
#HF/6-31G* nosymm scf=tight opt=ModRedundant

Mol

0 1
H	 -2.646374	 -0.642757	 1.268656
C	 -2.083525	 -0.384536	 0.393091
O	 -0.807605	 -0.127164	 0.768327
F	 -2.118945	 -1.383102	 -0.486752
F	 -2.621877	 0.670592	 -0.209486
C	 0.084052	 0.273579	 -0.209957
C	 1.457012	 -0.241962	 0.201575
Cl	 0.100759	 2.037974	 -0.364385
H	 -0.155788	 -0.136340	 -1.175470
F	 2.360990	 0.092289	 -0.694661
F	 1.413756	 -1.557687	 0.268182
F	 1.829481	 0.220857	 1.369923

9 6 3 2 F
