%nprocshared=4
%mem=2GB
#HF/cc-pVTZ nosymm scf=tight opt=ModRedundant

Mol

0 1
H	 0.891547	 0.730104	 2.158197
C	 -0.058468	 0.804107	 1.649566
O	 -0.000000	 0.000000	 0.518769
H	 -0.845096	 0.480856	 2.328227
H	 -0.236098	 1.845531	 1.389299
C	 -1.165153	 0.000000	 -0.236961
H	 -1.229451	 0.882440	 -0.870223
H	 -2.002557	 0.000000	 0.445289
H	 -1.229451	 -0.882440	 -0.870223

2 3 6 7 F
