%nprocshared=4
%mem=2GB
#HF/6-31G* nosymm scf=tight opt=ModRedundant

Mol

0 1
O	 3.225979	 0.970355	 -0.599647
C	 2.701189	 0.057885	 -0.047330
C	 1.245376	 -0.013843	 0.345420
O	 3.347903	 -1.046386	 0.304773
C	 0.318612	 -0.294595	 -0.835429
H	 1.161043	 -0.771176	 1.117771
H	 0.993367	 0.928584	 0.825022
C	 -1.169891	 -0.266467	 -0.472025
H	 0.572998	 -1.256590	 -1.270139
H	 0.509668	 0.442613	 -1.607727
C	 -1.624214	 -1.380978	 0.474846
H	 -1.742960	 -0.338472	 -1.393508
H	 -1.418731	 0.700505	 -0.037222
C	 -3.134626	 -1.375301	 0.719023
H	 -1.330693	 -2.344235	 0.060359
H	 -1.113699	 -1.291522	 1.431060
C	 -3.599381	 -2.481539	 1.667903
H	 -3.653285	 -1.477958	 -0.232653
H	 -3.430382	 -0.408531	 1.123476
C	 -5.109387	 -2.471287	 1.903435
H	 -3.303763	 -3.448248	 1.265751
H	 -3.085274	 -2.377998	 2.621189
H	 -5.407835	 -3.266362	 2.579742
H	 -5.652293	 -2.607957	 0.972430
H	 -5.432096	 -1.529205	 2.337732
C	 4.728119	 -1.109107	 -0.004993
H	 4.882018	 -1.033965	 -1.071845
H	 5.068212	 -2.067527	 0.355250
H	 5.265056	 -0.311663	 0.488280

6 3 2 1 F
