%nprocshared=4
%mem=2GB
#HF/cc-pVTZ nosymm scf=tight opt=ModRedundant

Mol

0 1
O	 -0.040817	 -2.247719	 2.027836
C	 0.800783	 -1.752999	 1.358550
C	 1.421965	 -0.398954	 1.588817
O	 1.317782	 -2.342573	 0.292610
C	 0.864884	 0.324387	 2.808527
H	 2.491906	 -0.552530	 1.660890
H	 1.265541	 0.181832	 0.685186
C	 0.942032	 -0.491532	 4.099714
H	 -0.163153	 0.611144	 2.616223
H	 1.412473	 1.249413	 2.940748
C	 2.290153	 -1.160445	 4.363400
H	 0.176657	 -1.260656	 4.057102
H	 0.683655	 0.143150	 4.944522
C	 3.471885	 -0.210212	 4.189175
H	 2.297720	 -1.560146	 5.374861
H	 2.422955	 -2.009278	 3.699034
C	 3.697985	 0.219610	 2.742487
H	 4.373898	 -0.686490	 4.565836
H	 3.316143	 0.673127	 4.804254
C	 4.881243	 1.167272	 2.576316
H	 3.853960	 -0.661972	 2.126692
H	 2.798280	 0.698345	 2.365392
H	 5.013669	 1.452703	 1.539023
H	 5.803320	 0.704500	 2.912062
H	 4.739700	 2.075066	 3.153450
C	 0.824678	 -3.623490	 -0.043565
H	 -0.139967	 -3.792406	 0.411591
H	 1.544729	 -4.329140	 0.337866
H	 0.731980	 -3.727573	 -1.114467

2 4 26 27 F
