%nprocshared=4
%mem=2GB
#HF/cc-pVTZ nosymm scf=tight opt=ModRedundant

Mol

0 1
O	 -2.374409	 1.338660	 -0.336961
C	 -2.104891	 0.204655	 -0.107126
C	 -0.881910	 -0.448129	 -0.720509
C	 -2.949910	 -0.638219	 0.818225
C	 -0.884830	 -1.962336	 -0.475536
H	 -0.008195	 -0.006986	 -0.257771
H	 -0.842345	 -0.246886	 -1.785779
C	 0.343902	 -2.648050	 -1.069269
H	 -0.935877	 -2.133458	 0.592331
H	 -1.781330	 -2.401604	 -0.906384
C	 0.364996	 -4.168762	 -0.905260
H	 1.239582	 -2.226355	 -0.619926
H	 0.396250	 -2.413984	 -2.129022
C	 0.489383	 -4.652592	 0.537417
H	 1.199658	 -4.561455	 -1.477482
H	 -0.531913	 -4.590148	 -1.351715
H	 1.375272	 -4.241623	 1.010591
H	 0.567684	 -5.733022	 0.573641
H	 -0.366922	 -4.368793	 1.136983
H	 -3.440322	 -1.417144	 0.243099
H	 -3.694377	 -0.025850	 1.303346
H	 -2.331085	 -1.129829	 1.560495

6 3 2 1 F
