%nprocshared=4
%mem=2GB
#HF/cc-pVTZ nosymm scf=tight opt=ModRedundant

Mol

0 1
O	 3.335749	 -2.893727	 -0.407275
C	 2.574127	 -2.072921	 -0.023620
C	 2.884364	 -0.610628	 0.170752
O	 1.317782	 -2.342573	 0.292610
C	 4.319962	 -0.242967	 -0.182997
H	 2.165406	 -0.055922	 -0.419970
H	 2.664270	 -0.372587	 1.206718
C	 4.736020	 -0.663191	 -1.593368
H	 4.992243	 -0.683808	 0.544855
H	 4.435599	 0.829360	 -0.084248
C	 3.738002	 -0.310202	 -2.695078
H	 4.884844	 -1.738838	 -1.593045
H	 5.703468	 -0.225970	 -1.830355
C	 3.257291	 1.136715	 -2.623416
H	 4.199576	 -0.486977	 -3.663876
H	 2.875557	 -0.968279	 -2.643524
C	 2.382339	 1.426932	 -1.407272
H	 2.703164	 1.375968	 -3.527873
H	 4.118343	 1.801017	 -2.610896
C	 1.904603	 2.873826	 -1.343670
H	 1.521425	 0.764043	 -1.418513
H	 2.935721	 1.190959	 -0.502318
H	 1.287052	 3.045873	 -0.469590
H	 1.317365	 3.130819	 -2.219007
H	 2.742866	 3.561071	 -1.296599
C	 0.824678	 -3.623490	 -0.043565
H	 -0.139967	 -3.792406	 0.411591
H	 1.544729	 -4.329140	 0.337866
H	 0.731980	 -3.727573	 -1.114467

1 2 4 26 F
