%nprocshared=4
%mem=2GB
#HF/cc-pVTZ nosymm scf=tight opt=ModRedundant

Mol

0 1
H	 -2.644180	 -0.653737	 1.272255
C	 -2.092774	 -0.380414	 0.391915
O	 -0.808934	 -0.154049	 0.752536
F	 -2.163230	 -1.351640	 -0.507133
F	 -2.627232	 0.691260	 -0.169301
C	 -0.500631	 -0.107846	 2.094965
C	 0.430459	 1.083077	 2.309563
Cl	 0.292594	 -1.603732	 2.622845
H	 -1.369488	 0.030809	 2.714245
F	 0.751058	 1.192006	 3.573831
F	 -0.192671	 2.181697	 1.954518
F	 1.525418	 0.988201	 1.606489

6 3 2 4 F
