%nprocshared=4
%mem=2GB
#HF/cc-pVTZ nosymm scf=tight opt=ModRedundant

Mol

0 1
O	 1.210526	 2.869833	 -0.337603
C	 1.634740	 2.019146	 0.375002
C	 0.706600	 1.024075	 1.043163
C	 3.114574	 1.871236	 0.637648
C	 0.376695	 -0.140025	 0.100361
H	 -0.203480	 1.549111	 1.304321
H	 1.155369	 0.644474	 1.954960
C	 1.630207	 -0.772146	 -0.501001
H	 -0.190506	 -0.876393	 0.655586
H	 -0.266639	 0.210173	 -0.703244
C	 2.907848	 -0.545876	 0.309149
H	 1.772784	 -0.391628	 -1.509394
H	 1.468529	 -1.842059	 -0.599744
C	 3.373802	 0.906639	 0.372125
H	 3.699140	 -1.146831	 -0.127906
H	 2.764321	 -0.923458	 1.318191
H	 3.519798	 1.311927	 -0.623875
H	 4.316899	 0.983758	 0.900700
H	 2.661122	 1.540651	 0.885346
H	 3.318794	 2.114810	 1.675416
H	 3.674431	 2.533502	 -0.004639
H	 3.430636	 0.845932	 0.481294

3 5 8 12 F
