%nprocshared=4
%mem=2GB
#HF/cc-pVTZ nosymm scf=tight opt=ModRedundant

Mol

0 1
O	 2.434597	 2.023958	 0.343123
C	 1.503761	 2.233550	 1.050035
C	 0.250776	 1.382341	 1.013915
C	 1.508811	 3.374769	 2.041912
C	 0.288398	 0.247429	 0.000314
H	 0.087664	 0.997168	 2.017958
H	 -0.589630	 2.044904	 0.819663
C	 -0.993089	 -0.581367	 -0.000217
H	 1.139353	 -0.389971	 0.211767
H	 0.461599	 0.658735	 -0.987594
C	 -2.258482	 0.271340	 0.000669
H	 -1.002280	 -1.233920	 -0.870484
H	 -1.002061	 -1.235367	 0.868958
C	 -3.544441	 -0.550271	 -0.000253
H	 -2.250545	 0.925250	 -0.867923
H	 -2.250598	 0.923423	 0.870642
C	 -4.804551	 0.308747	 0.000556
H	 -3.553737	 -1.201524	 -0.870151
H	 -3.553831	 -1.203282	 0.868313
H	 -4.842050	 0.949078	 -0.874436
H	 -5.698404	 -0.304480	 -0.000254
H	 -4.842277	 0.947103	 0.876982
H	 1.368631	 2.996216	 3.048438
H	 2.444783	 3.908330	 1.981407
H	 0.688048	 4.052900	 1.835690

9 5 8 12 F
