%nprocshared=4
%mem=2GB
#HF/cc-pVTZ nosymm scf=tight opt=ModRedundant

Mol

0 1
H	 1.166964	 -1.062386	 0.758429
O	 1.324748	 -0.612467	 -0.052206
C	 0.706474	 0.636793	 -0.025501
C	 1.569812	 1.751341	 0.494172
H	 -0.164746	 0.534277	 0.610714
H	 0.338504	 0.908579	 -1.013139
C	 2.774699	 1.617816	 1.002824
H	 1.125889	 2.731063	 0.428393
H	 3.243370	 0.657235	 1.100818
H	 3.326897	 2.469819	 1.351004

5 3 2 1 F
