%nprocshared=4
%mem=2GB
#HF/cc-pVTZ nosymm scf=tight opt=ModRedundant

Mol

0 1
H	 -2.933983	 -1.649807	 1.183526
C	 -3.126285	 -1.106544	 0.248235
C	 -2.739983	 0.347494	 0.269147
O	 -3.611928	 -1.667124	 -0.672205
C	 -1.300066	 0.571565	 0.740429
H	 -2.906383	 0.762294	 -0.716544
H	 -3.422289	 0.839867	 0.958590
C	 -0.247837	 0.040196	 -0.230469
H	 -1.149379	 1.635401	 0.888373
H	 -1.164406	 0.109273	 1.715147
C	 1.181757	 0.280428	 0.247371
H	 -0.389262	 0.511380	 -1.199536
H	 -0.398238	 -1.024428	 -0.389790
C	 2.151032	 -0.811012	 -0.202643
H	 1.515939	 1.247397	 -0.115449
H	 1.191514	 0.341223	 1.333422
C	 3.580021	 -0.656538	 0.320835
H	 2.170545	 -0.847575	 -1.289412
H	 1.766632	 -1.772905	 0.124928
C	 4.327657	 0.562694	 -0.213579
H	 4.138806	 -1.549270	 0.057813
H	 3.561991	 -0.620783	 1.406976
H	 4.355973	 0.557257	 -1.298551
H	 3.867136	 1.491650	 0.100501
H	 5.351524	 0.571613	 0.142204

12 8 11 14 F
