%nprocshared=4
%mem=2GB
#HF/cc-pVTZ nosymm scf=tight opt=ModRedundant

Mol

0 1
O	 2.868453	 1.353349	 -0.000734
C	 2.841259	 0.166180	 -0.000295
C	 1.542794	 -0.614730	 -0.000853
C	 4.113372	 -0.651103	 0.000743
C	 0.288398	 0.247429	 0.000314
H	 1.557171	 -1.273139	 -0.866508
H	 1.557484	 -1.274998	 0.863344
C	 -0.520400	 0.108111	 -1.286367
H	 0.569526	 1.283839	 0.148416
H	 -0.325954	 -0.020006	 0.852479
C	 -1.780948	 0.967885	 -1.298116
H	 0.102769	 0.375582	 -2.136893
H	 -0.797140	 -0.934106	 -1.429404
C	 -2.595148	 0.834395	 -2.581858
H	 -1.505324	 2.009897	 -1.155444
H	 -2.404894	 0.700716	 -0.448740
C	 -3.853119	 1.696531	 -2.586156
H	 -1.972613	 1.102394	 -3.431309
H	 -2.872184	 -0.206658	 -2.724615
H	 -3.607230	 2.747849	 -2.479802
H	 -4.407343	 1.578697	 -3.510262
H	 -4.513554	 1.428957	 -1.768064
H	 4.145311	 -1.294584	 -0.871587
H	 4.970080	 0.004978	 -0.000091
H	 4.145223	 -1.291980	 0.874988

9 5 3 6 F
