%nprocshared=4
%mem=2GB
#HF/cc-pVTZ nosymm scf=tight opt=ModRedundant

Mol

0 1
H	 4.535425	 0.317158	 0.796232
C	 3.708859	 -0.317158	 0.498676
C	 2.405276	 0.471509	 0.440997
H	 3.952062	 -0.742868	 -0.469137
H	 3.645986	 -1.132804	 1.211267
C	 1.215950	 -0.382441	 0.027187
H	 2.499234	 1.296719	 -0.256115
H	 2.207371	 0.911269	 1.415688
N	 0.000002	 0.398953	 -0.040851
H	 1.401489	 -0.802380	 -0.956884
H	 1.123511	 -1.230921	 0.711747
C	 -1.215959	 -0.382435	 0.027143
H	 -0.000012	 1.086078	 0.683841
C	 -2.451944	 0.502410	 -0.038737
H	 -1.221867	 -1.069392	 -0.813828
H	 -1.259993	 -0.999709	 0.929424
C	 -3.752217	 -0.292550	 0.005776
H	 -2.407325	 1.093801	 -0.946480
H	 -2.431979	 1.206234	 0.790023
H	 -3.817783	 -0.982946	 -0.828547
H	 -4.612613	 0.364348	 -0.042306
H	 -3.830160	 -0.871666	 0.919868

10 6 9 12 F
