%nprocshared=1
%mem=2GB
#HF/6-31G* nosymm scf=tight 

Mol

0 1
O	 -0.682937	 1.318834	 -0.186099
C	 -0.860635	 0.152188	 -0.042321
C	 -2.173363	 -0.477127	 0.338347
O	 0.083258	 -0.765189	 -0.202595
H	 -2.477673	 -1.180929	 -0.427595
H	 -2.923125	 0.290956	 0.455536
H	 -2.058825	 -1.029004	 1.264191
C	 1.392086	 -0.334687	 -0.569248
C	 2.197188	 0.093489	 0.643651
H	 1.313707	 0.464735	 -1.290304
H	 1.837415	 -1.196496	 -1.045133
H	 3.210141	 0.342638	 0.342684
H	 1.757073	 0.965592	 1.110666
H	 2.245729	 -0.708839	 1.371887

10 8 4 2 F
