%nprocshared=4
%mem=2GB
#HF/6-31G* nosymm scf=tight opt=ModRedundant

Mol

0 1
H	 4.543497	 0.324254	 0.800495
C	 3.716858	 -0.312389	 0.501994
C	 2.406926	 0.472964	 0.454453
H	 3.958554	 -0.731811	 -0.470578
H	 3.660293	 -1.133613	 1.210964
C	 1.217350	 -0.386724	 0.039429
H	 2.492521	 1.303052	 -0.239822
H	 2.211686	 0.906854	 1.433745
N	 0.000003	 0.397874	 -0.023260
H	 1.400608	 -0.798949	 -0.949232
H	 1.128024	 -1.240971	 0.718885
C	 -1.217365	 -0.386708	 0.039277
H	 -0.000031	 1.072115	 0.718656
C	 -2.452633	 0.504241	 -0.042481
H	 -1.215291	 -1.074557	 -0.802042
H	 -1.269739	 -1.003477	 0.942735
C	 -3.758029	 -0.289423	 -0.010781
H	 -2.394220	 1.093569	 -0.952170
H	 -2.440793	 1.210787	 0.785871
H	 -3.816659	 -0.981993	 -0.845726
H	 -4.617837	 0.370165	 -0.069296
H	 -3.847478	 -0.867502	 0.904682

10 6 9 12 F
