%nprocshared=1
%mem=2GB
#HF/6-31G* nosymm scf=tight 

Mol

0 1
H	 0.919100	 2.147104	 4.493848
C	 0.355477	 1.211943	 4.600736
C	 -0.748929	 1.014847	 3.593735
O	 0.632348	 0.443015	 5.463199
C	 -0.264750	 1.188845	 2.147515
H	 -1.186085	 0.035894	 3.752653
H	 -1.513570	 1.760676	 3.807554
C	 0.715684	 0.102880	 1.697263
H	 -1.130805	 1.187088	 1.492358
H	 0.196607	 2.168933	 2.036451
C	 1.180775	 0.282413	 0.250794
H	 0.243736	 -0.871116	 1.808814
H	 1.583342	 0.093590	 2.354243
C	 2.148627	 -0.814315	 -0.201312
H	 0.309724	 0.301344	 -0.399318
H	 1.663341	 1.253158	 0.145116
C	 3.580890	 -0.659131	 0.322722
H	 2.166869	 -0.852443	 -1.289387
H	 1.762857	 -1.776509	 0.128956
C	 4.324889	 0.564933	 -0.213704
H	 4.142010	 -1.551473	 0.056605
H	 3.564836	 -0.624694	 1.410140
H	 4.342616	 0.565491	 -1.300421
H	 3.866655	 1.493402	 0.110242
H	 5.353900	 0.572371	 0.132816

6 3 5 8 F
6 3 2 4 F
3 5 8 12 F
12 8 11 14 F
20 17 14 18 F
