%nprocshared=4
%mem=2GB
#HF/cc-pVTZ nosymm scf=tight opt=ModRedundant

Mol

0 1
O	 -2.081319	 -0.951530	 -0.502732
N	 -1.613558	 0.006676	 0.014756
C	 -0.329345	 -0.171618	 0.743966
O	 -2.068523	 1.100482	 -0.024385
C	 -0.569383	 -0.034461	 2.242184
H	 0.333258	 0.592339	 0.372823
H	 0.028227	 -1.153705	 0.483432
C	 0.725054	 -0.212463	 3.031433
H	 -0.994409	 0.942150	 2.442538
H	 -1.296832	 -0.776092	 2.551277
C	 0.511266	 -0.086972	 4.535769
H	 1.450634	 0.527368	 2.706439
H	 1.153746	 -1.184746	 2.807163
H	 0.114232	 0.888416	 4.793993
H	 -0.186635	 -0.835019	 4.895039
H	 1.443410	 -0.218295	 5.071513

5 3 2 1 F
