%nprocshared=4
%mem=2GB
#HF/cc-pVTZ nosymm scf=tight opt=ModRedundant

Mol

0 1
O	 1.515005	 0.805872	 0.884887
C	 1.121787	 0.124983	 0.000110
C	 -0.170912	 -0.649867	 -0.000147
O	 1.785271	 -0.046722	 -1.131563
C	 -1.413045	 0.229353	 0.001137
H	 -0.152877	 -1.303435	 -0.866175
H	 -0.152278	 -1.305116	 0.864586
C	 -2.702562	 -0.586401	 0.000228
H	 -1.390744	 0.882001	 -0.864365
H	 -1.390549	 0.879837	 0.868264
C	 -3.953810	 0.284959	 -0.000782
H	 -2.717793	 -1.238567	 -0.869075
H	 -2.719108	 -1.238472	 0.869576
H	 -3.983727	 0.924403	 -0.876454
H	 -4.852989	 -0.320147	 -0.001515
H	 -3.985140	 0.924399	 0.874841
C	 3.020999	 0.625414	 -1.267675
H	 2.883363	 1.694293	 -1.198534
H	 3.397822	 0.361029	 -2.242341
H	 3.713548	 0.309075	 -0.501823

1 2 3 6 F
