%nprocshared=4
%mem=2GB
#HF/6-31G* nosymm scf=tight opt=ModRedundant

Mol

0 1
O	 2.846782	 -1.231332	 -1.843427
C	 2.498453	 -1.118115	 -0.712538
C	 1.068423	 -1.036922	 -0.235874
O	 3.347903	 -1.046386	 0.304773
C	 0.051483	 -1.127835	 -1.371516
H	 0.931840	 -1.825587	 0.496618
H	 0.962483	 -0.102993	 0.310250
C	 -1.400030	 -0.941901	 -0.916505
H	 0.159752	 -2.084268	 -1.874142
H	 0.291280	 -0.372085	 -2.111625
C	 -1.938405	 -2.050398	 -0.007387
H	 -2.026476	 -0.885408	 -1.803691
H	 -1.502178	 0.018781	 -0.413848
C	 -3.420862	 -1.876518	 0.328896
H	 -1.790432	 -3.014116	 -0.492331
H	 -1.369875	 -2.084190	 0.919222
C	 -3.968428	 -2.975678	 1.241119
H	 -3.998867	 -1.855098	 -0.593430
H	 -3.571152	 -0.908415	 0.804174
C	 -5.450378	 -2.796769	 1.569017
H	 -3.818144	 -3.943848	 0.768146
H	 -3.394737	 -2.995769	 2.165378
H	 -5.808981	 -3.590726	 2.216816
H	 -6.055541	 -2.807398	 0.666876
H	 -5.628846	 -1.851727	 2.074309
C	 4.728119	 -1.109107	 -0.004993
H	 4.882018	 -1.033965	 -1.071845
H	 5.068212	 -2.067527	 0.355250
H	 5.265056	 -0.311663	 0.488280

2 4 26 27 F
