%nprocshared=1
%mem=2GB
#HF/6-31G* nosymm scf=tight 

Mol

0 1
O	 3.749173	 0.512564	 1.824227
C	 2.980675	 -0.187454	 1.247646
C	 1.488609	 -0.229733	 1.472899
O	 3.347903	 -1.046386	 0.304773
C	 1.015327	 0.752272	 2.542379
H	 1.016559	 -0.045113	 0.513589
H	 1.230879	 -1.251790	 1.738742
C	 -0.480817	 0.647976	 2.857289
H	 1.256113	 1.764475	 2.231595
H	 1.582477	 0.575010	 3.449760
C	 -1.411442	 1.055987	 1.711612
H	 -0.689122	 1.281459	 3.716377
H	 -0.715760	 -0.368814	 3.168656
C	 -2.888489	 1.039953	 2.110452
H	 -1.142078	 2.054358	 1.370266
H	 -1.270466	 0.393726	 0.860431
C	 -3.828152	 1.440945	 0.971870
H	 -3.040637	 1.711093	 2.954049
H	 -3.155768	 0.044632	 2.462015
C	 -5.301017	 1.426077	 1.379483
H	 -3.561817	 2.434915	 0.618695
H	 -3.680635	 0.768550	 0.129312
H	 -5.941585	 1.714501	 0.551781
H	 -5.488174	 2.115245	 2.198150
H	 -5.607638	 0.436161	 1.705557
C	 4.728119	 -1.109107	 -0.004993
H	 4.882018	 -1.033965	 -1.071845
H	 5.068212	 -2.067527	 0.355250
H	 5.265056	 -0.311663	 0.488280

21 17 14 11 F
17 14 11 15 F
15 11 8 5 F
6 3 5 9 F
11 8 5 9 F
1 2 4 26 F
6 3 2 1 F
