%nprocshared=4
%mem=2GB
#HF/cc-pVTZ nosymm scf=tight opt=ModRedundant

Mol

0 1
O	 1.438491	 -0.219315	 3.121770
C	 1.185628	 -1.104944	 2.371334
C	 -0.001741	 -1.019496	 1.432769
C	 2.039072	 -2.348739	 2.298020
C	 0.358027	 -0.244388	 0.158950
H	 -0.797876	 -0.506619	 1.957401
H	 -0.348946	 -2.014077	 1.173691
C	 1.630207	 -0.772146	 -0.501001
H	 -0.478758	 -0.308207	 -0.525116
H	 0.489601	 0.808707	 0.395549
C	 2.907848	 -0.545876	 0.309149
H	 1.740549	 -0.313317	 -1.480429
H	 1.516143	 -1.838460	 -0.675838
C	 3.373802	 0.906639	 0.372125
H	 3.699140	 -1.146831	 -0.127906
H	 2.764321	 -0.923458	 1.318191
H	 3.519798	 1.311927	 -0.623875
H	 4.316899	 0.983758	 0.900700
H	 2.661122	 1.540651	 0.885346
H	 1.467824	 -3.195489	 2.665018
H	 2.927463	 -2.226261	 2.898295
H	 2.310786	 -2.566731	 1.271258

12 8 11 15 F
