%nprocshared=1
%mem=2GB
#HF/6-31G* nosymm scf=tight 

Mol

0 1
O	 0.080733	 -0.162779	 -0.497877
C	 1.122059	 0.121804	 -0.000188
C	 1.433541	 1.420450	 0.702942
O	 2.172624	 -0.688929	 0.000216
C	 0.257611	 2.391915	 0.730986
H	 1.764685	 1.174071	 1.708126
H	 2.295186	 1.859469	 0.207377
C	 0.599996	 3.698649	 1.448331
H	 -0.588729	 1.916217	 1.216706
H	 -0.057798	 2.602231	 -0.286259
C	 -0.572273	 4.678338	 1.479930
H	 0.916136	 3.482138	 2.466788
H	 1.450205	 4.169800	 0.959216
H	 -1.427584	 4.248913	 1.993437
H	 -0.303357	 5.595768	 1.994015
H	 -0.889287	 4.941960	 0.475119
C	 3.452279	 -0.082609	 0.000533
H	 3.583069	 0.529321	 -0.880332
H	 4.163299	 -0.894027	 0.001117
H	 3.582335	 0.529955	 0.881077

9 5 8 12 F
1 2 3 6 F
9 5 3 6 F
