%nprocshared=4
%mem=2GB
#HF/cc-pVTZ nosymm scf=tight opt=ModRedundant

Mol

0 1
O	 0.964813	 4.333706	 -0.750170
C	 -0.076828	 4.734772	 -1.155436
C	 -1.332981	 3.887618	 -1.139857
C	 -0.218408	 6.130788	 -1.718746
C	 -1.144096	 2.490158	 -0.566921
H	 -2.089503	 4.434197	 -0.581293
H	 -1.707499	 3.838640	 -2.159829
C	 -2.434206	 1.674864	 -0.571669
H	 -0.761932	 2.569259	 0.444419
H	 -0.379460	 1.973233	 -1.135477
C	 -2.258482	 0.271340	 0.000669
H	 -3.197177	 2.200486	 -0.001693
H	 -2.812731	 1.601393	 -1.588813
C	 -3.544441	 -0.550271	 -0.000253
H	 -1.880368	 0.343744	 1.017478
H	 -1.496567	 -0.255147	 -0.568914
C	 -4.804551	 0.308747	 0.000556
H	 -3.553737	 -1.201524	 -0.870151
H	 -3.553831	 -1.203282	 0.868313
H	 -4.842050	 0.949078	 -0.874436
H	 -5.698404	 -0.304480	 -0.000254
H	 -4.842277	 0.947103	 0.876982
H	 -0.955635	 6.689567	 -1.152787
H	 0.732273	 6.639741	 -1.679186
H	 -0.566231	 6.086298	 -2.744944

15 11 14 18 F
