%nprocshared=4
%mem=2GB
#HF/cc-pVTZ nosymm scf=tight opt=ModRedundant

Mol

0 1
O	 -2.817697	 1.304178	 0.001046
C	 -2.664672	 0.129869	 0.003507
C	 -3.797908	 -0.860100	 -0.001145
O	 -1.481217	 -0.452708	 0.001092
H	 -4.408836	 -0.679689	 -0.875387
H	 -3.443486	 -1.878443	 -0.002770
H	 -4.412123	 -0.683688	 0.871605
C	 -0.332055	 0.384012	 -0.000250
C	 0.892252	 -0.506059	 -0.000295
H	 -0.360822	 1.020205	 -0.874146
H	 -0.359817	 1.021310	 0.872861
C	 1.235523	 -1.010877	 -1.398753
H	 0.716729	 -1.345866	 0.664224
H	 1.730278	 0.048183	 0.409818
C	 2.467904	 -1.910735	 -1.423613
H	 0.387364	 -1.555712	 -1.805888
H	 1.398767	 -0.163567	 -2.060109
C	 2.811972	 -2.414453	 -2.821072
H	 2.305293	 -2.758739	 -0.764444
H	 3.316164	 -1.367302	 -1.017136
H	 1.995168	 -2.991635	 -3.241236
H	 3.690245	 -3.049153	 -2.803775
H	 3.013554	 -1.589390	 -3.495972

13 9 8 10 F
