%nprocshared=4
%mem=2GB
#HF/cc-pVTZ nosymm scf=tight opt=ModRedundant

Mol

0 1
H	 1.695381	 -0.990570	 0.918880
C	 0.826841	 -1.090974	 0.284633
O	 -0.000000	 0.000000	 0.518769
H	 1.153191	 -1.128361	 -0.752648
H	 0.326931	 -2.027969	 0.521244
C	 -1.165153	 0.000000	 -0.236961
H	 -1.229451	 0.882440	 -0.870223
H	 -2.002557	 0.000000	 0.445289
H	 -1.229451	 -0.882440	 -0.870223

2 3 6 7 F
