%nprocshared=4
%mem=2GB
#HF/cc-pVTZ nosymm scf=tight opt=ModRedundant

Mol

0 1
O	 -2.071633	 -1.227563	 -0.223463
C	 -1.652164	 -0.152425	 0.058082
C	 -0.327811	 0.006324	 0.778296
C	 -2.402515	 1.108629	 -0.298924
C	 0.843231	 -0.001575	 -0.211665
H	 -0.319484	 0.928173	 1.350354
H	 -0.227804	 -0.823091	 1.466705
C	 2.121544	 0.581639	 0.383319
H	 0.575320	 0.560220	 -1.102903
H	 1.021249	 -1.022815	 -0.530637
C	 3.292285	 0.564300	 -0.593527
H	 1.935727	 1.602188	 0.706545
H	 2.386981	 0.021868	 1.275362
H	 3.070081	 1.145744	 -1.482111
H	 3.522094	 -0.447287	 -0.910149
H	 4.184845	 0.980360	 -0.141165
H	 -3.240910	 0.874416	 -0.936711
H	 -1.747554	 1.818823	 -0.790984
H	 -2.760419	 1.579708	 0.610998

9 5 3 2 F
