%nprocshared=4
%mem=2GB
#HF/6-31G* nosymm scf=tight opt=ModRedundant

Mol

0 1
H	 -2.646374	 -0.642757	 1.268656
C	 -2.083525	 -0.384536	 0.393091
O	 -0.807605	 -0.127164	 0.768327
F	 -2.118945	 -1.383102	 -0.486752
F	 -2.621877	 0.670592	 -0.209486
C	 -0.572063	 1.014105	 1.513118
C	 0.630423	 1.711342	 0.890183
Cl	 -0.249202	 0.607347	 3.206494
H	 -1.405165	 1.694803	 1.494038
F	 0.907551	 2.820240	 1.542629
F	 0.337628	 2.031201	 -0.354566
F	 1.695971	 0.948105	 0.883048

6 3 2 4 F
