%nprocshared=4
%mem=2GB
#HF/cc-pVTZ nosymm scf=tight opt=ModRedundant

Mol

0 1
H	 -0.448986	 -1.535647	 0.432742
N	 -0.625934	 -0.663929	 -0.000707
C	 -1.978635	 -0.158664	 0.001017
C	 0.415768	 -0.010204	 -0.561138
H	 -2.519057	 -0.493535	 -0.876362
H	 -1.938890	 0.917202	 -0.004137
H	 -2.514266	 -0.485137	 0.884506
C	 1.744820	 -0.723067	 -0.441688
O	 0.309538	 1.049224	 -1.104646
H	 1.699668	 -1.691111	 -0.926923
H	 2.507218	 -0.122267	 -0.909508
H	 1.998019	 -0.880874	 0.600236

4 2 3 5 F
