%nprocshared=4
%mem=2GB
#HF/cc-pVTZ nosymm scf=tight opt=ModRedundant

Mol

0 1
H	 -2.698799	 -0.000846	 0.036018
C	 -1.694291	 -0.000483	 0.434279
O	 -0.828718	 -0.000608	 -0.655022
H	 -1.576855	 0.881100	 1.056504
H	 -1.576401	 -0.881658	 1.057001
C	 -0.888406	 -1.067635	 -1.569225
C	 -0.505746	 -2.401635	 -0.938126
C	 -2.222909	 -1.136064	 -2.303165
H	 -0.125324	 -0.814834	 -2.294770
H	 0.426124	 -2.307798	 -0.394185
H	 -0.374564	 -3.149747	 -1.711344
H	 -1.266078	 -2.766086	 -0.257205
H	 -2.481853	 -0.164590	 -2.705942
H	 -2.154207	 -1.838256	 -3.125953
H	 -3.028806	 -1.466823	 -1.658440

6 3 2 1 F
