%nprocshared=4
%mem=2GB
#HF/cc-pVTZ nosymm scf=tight opt=ModRedundant

Mol

0 1
H	 -0.830157	 -2.505923	 -0.210533
N	 -0.101726	 -1.832937	 -0.320311
C	 -0.561396	 -0.500007	 0.035200
H	 0.189353	 -1.866801	 -1.275016
C	 0.575129	 0.507849	 -0.048832
H	 -0.930492	 -0.536864	 1.054821
H	 -1.390495	 -0.156418	 -0.585247
C	 1.951750	 -0.141983	 0.035101
H	 0.478254	 1.061643	 -0.975981
H	 0.467676	 1.231891	 0.755499
H	 2.101550	 -0.848142	 -0.774949
H	 2.738260	 0.600794	 -0.026526
H	 2.078939	 -0.679792	 0.968824

6 3 5 9 F
