%nprocshared=1
%mem=2GB
#HF/6-31G* nosymm scf=tight 

Mol

0 1
O	 1.177956	 1.259443	 0.339951
C	 1.122059	 0.121804	 -0.000188
C	 -0.118227	 -0.590954	 -0.481394
O	 2.172624	 -0.688929	 0.000216
C	 -1.358597	 0.296985	 -0.501136
H	 0.097969	 -0.987278	 -1.469797
H	 -0.264058	 -1.456877	 0.158657
C	 -2.600140	 -0.449372	 -0.991938
H	 -1.172546	 1.158522	 -1.134889
H	 -1.534820	 0.688664	 0.495877
C	 -3.847832	 0.432557	 -1.013663
H	 -2.417908	 -0.840409	 -1.990916
H	 -2.780464	 -1.313045	 -0.355052
H	 -3.711465	 1.287587	 -1.669394
H	 -4.713201	 -0.120276	 -1.365498
H	 -4.076960	 0.811059	 -0.021758
C	 3.452279	 -0.082609	 0.000533
H	 3.583069	 0.529321	 -0.880332
H	 4.163299	 -0.894027	 0.001117
H	 3.582335	 0.529955	 0.881077

9 5 8 12 F
1 2 3 6 F
9 5 3 6 F
