%nprocshared=4
%mem=2GB
#HF/cc-pVTZ nosymm scf=tight opt=ModRedundant

Mol

0 1
H	 7.254075	 -7.512401	 -3.136380
O	 7.188364	 -6.955410	 -2.383205
C	 7.758607	 -5.702261	 -2.654709
C	 6.919527	 -4.843805	 -3.589418
H	 7.854373	 -5.207690	 -1.697521
H	 8.762584	 -5.821464	 -3.057538
C	 5.438434	 -4.780918	 -3.223007
H	 7.335636	 -3.840911	 -3.604064
H	 7.024575	 -5.243972	 -4.595017
C	 4.724168	 -6.117670	 -3.417310
H	 4.952084	 -4.020551	 -3.824929
H	 5.337227	 -4.470174	 -2.184507
C	 3.253830	 -6.132154	 -2.995230
H	 4.800983	 -6.415077	 -4.460323
H	 5.252309	 -6.877059	 -2.847342
C	 3.009841	 -5.968591	 -1.496077
H	 2.741201	 -5.329440	 -3.518096
H	 2.792155	 -7.056236	 -3.335943
C	 3.483501	 -7.168232	 -0.679428
H	 1.947242	 -5.814414	 -1.321204
H	 3.510739	 -5.077049	 -1.131032
C	 4.787405	 -7.768073	 -1.195101
H	 3.610487	 -6.868801	 0.357294
H	 2.710250	 -7.931867	 -0.682378
H	 5.589371	 -7.037552	 -1.174452
H	 5.096164	 -8.614511	 -0.592342
H	 4.682460	 -8.112344	 -2.218729

20 16 19 22 F
