%nprocshared=4
%mem=2GB
#HF/6-31G* nosymm scf=tight opt=ModRedundant

Mol

0 1
H	 -3.420663	 1.227371	 -1.044276
O	 -3.452007	 0.283848	 -0.965577
C	 -3.181085	 -0.079926	 0.364119
C	 -1.765924	 0.277073	 0.805136
H	 -3.327791	 -1.152017	 0.410903
H	 -3.905698	 0.375695	 1.036898
C	 -0.677594	 -0.417312	 -0.014550
H	 -1.637766	 1.358238	 0.744969
H	 -1.659588	 0.017670	 1.857098
C	 0.738335	 -0.034840	 0.421385
H	 -0.814977	 -0.178223	 -1.064632
H	 -0.802730	 -1.495410	 0.071702
C	 1.822265	 -0.738362	 -0.399735
H	 0.853533	 1.043532	 0.342250
H	 0.871597	 -0.279636	 1.474438
C	 1.317446	 -1.425242	 -1.673905
H	 2.328399	 -1.471663	 0.226199
H	 2.577341	 -0.006335	 -0.678685
C	 0.380673	 -2.609740	 -1.429312
H	 2.177380	 -1.773032	 -2.241219
H	 0.816193	 -0.692353	 -2.303049
H	 0.851096	 -3.353846	 -0.792014
H	 0.120183	 -3.094836	 -2.365081
H	 -0.545239	 -2.304244	 -0.953366

17 13 10 7 F
