%nprocshared=4
%mem=2GB
#HF/cc-pVTZ nosymm scf=tight opt=ModRedundant

Mol

0 1
O	 1.206894	 1.292872	 0.172886
C	 1.121787	 0.124983	 0.000110
C	 -0.157892	 -0.632821	 -0.244062
O	 2.167739	 -0.685178	 -0.000678
C	 -1.399460	 0.247139	 -0.254168
H	 -0.043087	 -1.161382	 -1.184765
H	 -0.226600	 -1.400734	 0.519515
C	 -2.675609	 -0.551113	 -0.504261
H	 -1.289949	 1.012277	 -1.014505
H	 -1.474059	 0.772193	 0.691506
C	 -3.925939	 0.321444	 -0.518675
H	 -2.593542	 -1.077588	 -1.451535
H	 -2.779811	 -1.316251	 0.260555
H	 -3.867171	 1.075290	 -1.296395
H	 -4.815523	 -0.271100	 -0.698145
H	 -4.054881	 0.834794	 0.428123
C	 3.449556	 -0.089977	 -0.000570
H	 3.585694	 0.522473	 -0.879546
H	 4.155805	 -0.904274	 -0.001389
H	 3.586173	 0.521118	 0.879272

1 2 4 17 F
