%nprocshared=4
%mem=2GB
#HF/cc-pVTZ nosymm scf=tight opt=ModRedundant

Mol

0 1
O	 -1.793763	 4.520606	 3.031177
C	 -0.925633	 3.811292	 3.422754
C	 -0.669120	 2.440901	 2.829406
C	 -0.010855	 4.234075	 4.549990
C	 -1.614006	 2.055814	 1.699925
H	 0.364566	 2.418700	 2.491669
H	 -0.722702	 1.717851	 3.640168
C	 -1.318035	 0.669570	 1.134380
H	 -1.546914	 2.797250	 0.911962
H	 -2.635179	 2.095923	 2.061491
C	 -2.258482	 0.271340	 0.000669
H	 -0.291561	 0.635999	 0.775913
H	 -1.385192	 -0.068558	 1.930570
C	 -2.305585	 1.289336	 -1.135201
H	 -3.260642	 0.132017	 0.398636
H	 -1.953250	 -0.693945	 -0.395798
C	 -3.572900	 2.137654	 -1.127623
H	 -1.437227	 1.939525	 -1.070796
H	 -2.226298	 0.769809	 -2.086371
H	 -3.663669	 2.697063	 -0.202494
H	 -3.574663	 2.849112	 -1.945453
H	 -4.458537	 1.518747	 -1.225834
H	 1.020349	 4.235651	 4.214339
H	 -0.283165	 5.220581	 4.892110
H	 -0.080832	 3.530345	 5.372127

15 11 14 18 F
