%nprocshared=4
%mem=2GB
#HF/cc-pVTZ nosymm scf=tight opt=ModRedundant

Mol

0 1
H	 -2.816458	 -0.841657	 -0.064679
N	 -1.878861	 -0.711874	 0.250184
C	 -1.341419	 0.551458	 -0.220231
H	 -1.333674	 -1.468530	 -0.105118
C	 -1.089618	 0.498564	 -1.709676
H	 -1.988570	 1.402379	 -0.011247
H	 -0.394977	 0.732828	 0.277165
O	 -2.311651	 0.353446	 -2.367919
H	 -0.596544	 1.413962	 -2.033863
H	 -0.436959	 -0.340316	 -1.940422
C	 -2.211197	 0.222733	 -3.747065
H	 -3.210541	 0.121147	 -4.145031
H	 -1.743661	 1.096382	 -4.196332
H	 -1.633194	 -0.656301	 -4.022339

6 3 2 4 F
