%nprocshared=4
%mem=2GB
#HF/cc-pVTZ nosymm scf=tight opt=ModRedundant

Mol

0 1
H	 -0.844489	 2.156414	 -2.955886
O	 -1.284818	 1.476634	 -2.479536
C	 -0.691375	 1.303369	 -1.223373
C	 0.649713	 0.605461	 -1.333818
H	 -0.567397	 2.249812	 -0.706649
H	 -1.365792	 0.695943	 -0.636961
O	 1.172093	 0.457955	 -0.054438
H	 1.325118	 1.193647	 -1.957325
H	 0.518097	 -0.360522	 -1.816652
C	 2.395478	 -0.199028	 -0.000366
H	 2.505946	 -0.901710	 -0.823354
H	 3.174616	 0.545641	 -0.071768
H	 2.513730	 -0.742241	 0.934223

4 7 10 13 F
