%nprocshared=4
%mem=2GB
#HF/cc-pVTZ nosymm scf=tight opt=ModRedundant

Mol

0 1
H	 2.342730	 0.877684	 -1.045694
C	 2.360424	 0.000000	 -0.411793
C	 1.173749	 0.000000	 0.526870
H	 3.286567	 0.000000	 0.151574
H	 2.342730	 -0.877684	 -1.045694
O	 0.000000	 0.000000	 -0.223739
H	 1.203779	 0.876757	 1.172538
H	 1.203779	 -0.876757	 1.172538
C	 -1.173749	 0.000000	 0.526870
C	 -2.264123	 0.692323	 -0.261204
H	 -1.010650	 0.511676	 1.474540
H	 -1.467987	 -1.022669	 0.759388
H	 -1.982199	 1.714221	 -0.481922
H	 -3.188626	 0.704109	 0.304726
H	 -2.440020	 0.178254	 -1.197829

11 9 6 3 F
