%nprocshared=4
%mem=2GB
#HF/cc-pVTZ nosymm scf=tight opt=ModRedundant

Mol

0 1
O	 1.826502	 1.331157	 0.200998
C	 1.642789	 0.226049	 0.583130
C	 0.320530	 -0.497169	 0.568042
O	 2.601096	 -0.535282	 1.085565
C	 -0.824290	 0.329213	 -0.000115
H	 0.462249	 -1.412917	 0.003444
H	 0.113216	 -0.807868	 1.586830
C	 -2.146151	 -0.432825	 -0.000068
H	 -0.576403	 0.636500	 -1.009768
H	 -0.925671	 1.242392	 0.575312
C	 -3.366283	 0.483552	 0.000557
H	 -2.189286	 -1.084450	 -0.869996
H	 -2.188867	 -1.085083	 0.869399
C	 -4.687436	 -0.278003	 0.000108
H	 -3.325150	 1.134819	 -0.867957
H	 -3.325087	 1.133730	 0.869885
H	 -4.773783	 -0.912098	 -0.876078
H	 -5.531922	 0.401392	 0.000363
H	 -4.773901	 -0.912898	 0.875703
C	 3.898871	 0.019364	 1.159546
H	 4.256883	 0.284464	 0.175797
H	 4.525129	 -0.745071	 1.589996
H	 3.902144	 0.899852	 1.784802

9 5 8 12 F
