%nprocshared=4
%mem=2GB
#HF/cc-pVTZ nosymm scf=tight opt=ModRedundant

Mol

0 1
O	 -2.817697	 1.304178	 0.001046
C	 -2.664672	 0.129869	 0.003507
C	 -3.797908	 -0.860100	 -0.001145
O	 -1.481217	 -0.452708	 0.001092
H	 -4.408836	 -0.679689	 -0.875387
H	 -3.443486	 -1.878443	 -0.002770
H	 -4.412123	 -0.683688	 0.871605
C	 -0.332055	 0.384012	 -0.000250
C	 0.892252	 -0.506059	 -0.000295
H	 -0.360822	 1.020205	 -0.874146
H	 -0.359817	 1.021310	 0.872861
C	 2.188199	 0.299473	 -0.001416
H	 0.857046	 -1.152781	 -0.871031
H	 0.857910	 -1.151798	 0.871202
C	 2.188084	 1.433338	 1.020091
H	 3.026752	 -0.362499	 0.200074
H	 2.357675	 0.712164	 -0.992849
C	 3.482476	 2.239288	 1.018474
H	 2.020566	 1.021999	 2.011451
H	 1.350635	 2.095600	 0.819653
H	 4.335504	 1.610322	 1.249969
H	 3.449703	 3.035035	 1.753469
H	 3.660544	 2.691976	 0.048825

16 12 9 13 F
