%nprocshared=4
%mem=2GB
#HF/cc-pVTZ nosymm scf=tight opt=ModRedundant

Mol

0 1
H	 2.609437	 3.943317	 -3.711096
C	 2.340863	 3.218032	 -2.966780
C	 1.295552	 3.475427	 -2.098038
C	 3.040629	 2.029485	 -2.879207
H	 0.752851	 4.398180	 -2.166602
C	 0.951023	 2.542949	 -1.141858
H	 3.851113	 1.830830	 -3.553390
C	 2.696849	 1.094789	 -1.922308
H	 0.144524	 2.725947	 -0.461322
C	 1.650208	 1.349359	 -1.050386
H	 3.236739	 0.173334	 -1.851808
C	 1.238974	 0.374429	 0.000004
O	 1.968286	 -0.725612	 -0.000027
O	 0.349313	 0.560984	 0.760845
C	 3.373556	 -0.568203	 0.000011
H	 3.695416	 -0.031588	 -0.879663
H	 3.782700	 -1.565294	 -0.000152
H	 3.695405	 -0.031851	 0.879862

10 12 13 15 F
