%nprocshared=4
%mem=2GB
#HF/cc-pVTZ nosymm scf=tight opt=ModRedundant

Mol

0 1
H	 -3.093182	 -0.664444	 1.518548
O	 -2.448659	 -0.997060	 0.912186
C	 -1.386951	 -0.196671	 0.945207
C	 -0.310616	 -0.658853	 0.000791
O	 -1.338334	 0.755169	 1.644926
C	 0.926581	 0.227233	 0.000178
H	 -0.755865	 -0.715841	 -0.987254
H	 -0.064555	 -1.680241	 0.272709
C	 2.220156	 -0.582071	 -0.000088
H	 0.899945	 0.878221	 -0.866390
H	 0.900542	 0.878581	 0.866486
C	 3.466689	 0.296012	 -0.000457
H	 2.239073	 -1.234095	 -0.869382
H	 2.239505	 -1.233985	 0.869270
H	 3.493549	 0.935857	 -0.875887
H	 4.368821	 -0.304526	 -0.001199
H	 3.494559	 0.935166	 0.875458

7 4 6 10 F
