%nprocshared=4
%mem=2GB
#HF/cc-pVTZ nosymm scf=tight opt=ModRedundant

Mol

0 1
O	 1.548567	 1.306794	 2.521942
C	 1.067792	 0.278725	 2.170716
C	 -0.033641	 0.245937	 1.129649
C	 1.537781	 -1.045341	 2.724546
C	 0.548358	 0.284817	 -0.289015
H	 -0.660928	 1.113854	 1.288840
H	 -0.642812	 -0.643030	 1.254205
C	 1.630207	 -0.772146	 -0.501001
H	 -0.262432	 0.144241	 -0.992639
H	 0.967427	 1.268537	 -0.486432
C	 2.907848	 -0.545876	 0.309149
H	 1.879569	 -0.820144	 -1.558116
H	 1.223311	 -1.745260	 -0.240061
C	 3.373802	 0.906639	 0.372125
H	 3.699140	 -1.146831	 -0.127906
H	 2.764321	 -0.923458	 1.318191
H	 3.519798	 1.311927	 -0.623875
H	 4.316899	 0.983758	 0.900700
H	 2.661122	 1.540651	 0.885346
H	 0.746037	 -1.482197	 3.324794
H	 2.415821	 -0.902478	 3.335451
H	 1.752241	 -1.741794	 1.921707

12 8 11 15 F
