%nprocshared=4
%mem=2GB
#HF/6-31G* nosymm scf=tight opt=ModRedundant

Mol

0 1
H	 3.893188	 0.355400	 -0.101367
N	 3.092854	 -0.246221	 -0.068770
C	 1.865559	 0.531981	 0.018834
H	 3.199514	 -0.826043	 0.741946
C	 0.645745	 -0.382037	 -0.029944
H	 1.841966	 1.207024	 -0.831236
H	 1.815756	 1.155410	 0.915079
C	 -0.679275	 0.379305	 0.025956
H	 0.698998	 -0.976915	 -0.937203
H	 0.693479	 -1.083846	 0.802235
C	 -0.631914	 1.605072	 0.940082
H	 -1.466341	 -0.290990	 0.368128
H	 -0.962023	 0.693017	 -0.977780
C	 -1.959232	 2.360452	 0.996096
H	 -0.350898	 1.293911	 1.943787
H	 0.151996	 2.277998	 0.599038
H	 -2.757573	 1.723324	 1.366280
H	 -1.893998	 3.223065	 1.652028
H	 -2.250637	 2.715145	 0.011379

12 8 5 9 F
