%nprocshared=4
%mem=2GB
#HF/cc-pVTZ nosymm scf=tight opt=ModRedundant

Mol

0 1
O	 -1.510770	 1.240811	 -0.054933
C	 -1.081510	 0.147522	 0.122720
C	 0.327029	 -0.064006	 0.641890
C	 -1.903028	 -1.084121	 -0.174656
C	 1.349460	 -0.017068	 -0.500215
H	 0.399029	 -1.014606	 1.159950
H	 0.538021	 0.726928	 1.350471
C	 2.683024	 -0.646386	 -0.113809
H	 0.949573	 -0.527743	 -1.371501
H	 1.499988	 1.016873	 -0.787676
H	 3.389739	 -0.589969	 -0.933200
H	 2.563062	 -1.691883	 0.149435
H	 3.121078	 -0.138192	 0.738082
H	 -1.341891	 -1.779207	 -0.789259
H	 -2.820449	 -0.808163	 -0.671328
H	 -2.133314	 -1.593056	 0.755831

9 5 3 2 F
