%nprocshared=4
%mem=2GB
#HF/cc-pVTZ nosymm scf=tight opt=ModRedundant

Mol

0 1
O	 1.164704	 1.386407	 -0.291176
C	 0.973604	 0.360173	 -0.849195
C	 -0.315188	 -0.420877	 -0.828222
O	 1.892138	 -0.247755	 -1.582062
C	 -1.413045	 0.229353	 0.001137
H	 -0.627165	 -0.552590	 -1.859145
H	 -0.081837	 -1.414989	 -0.461139
C	 -2.702562	 -0.586401	 0.000228
H	 -1.608170	 1.225161	 -0.380742
H	 -1.062678	 0.361381	 1.018661
C	 -3.953810	 0.284959	 -0.000782
H	 -2.717793	 -1.238567	 -0.869075
H	 -2.719108	 -1.238472	 0.869576
H	 -3.983727	 0.924403	 -0.876454
H	 -4.852989	 -0.320147	 -0.001515
H	 -3.985140	 0.924399	 0.874841
C	 3.155103	 0.377366	 -1.689123
H	 3.059870	 1.355080	 -2.137714
H	 3.752177	 -0.263652	 -2.317189
H	 3.613946	 0.478994	 -0.716828

9 5 8 12 F
