%nprocshared=4
%mem=2GB
#HF/cc-pVTZ nosymm scf=tight opt=ModRedundant

Mol

0 1
H	 0.559871	 -3.346639	 -0.734483
O	 0.921754	 -2.606501	 -0.270875
C	 0.116995	 -1.562917	 -0.451782
C	 0.626018	 -0.337582	 0.258241
O	 -0.869001	 -1.635093	 -1.100198
C	 -0.267326	 0.883135	 0.076490
H	 0.741926	 -0.606795	 1.301289
H	 1.628560	 -0.149021	 -0.112955
C	 -1.726822	 0.642622	 0.463839
H	 -0.210803	 1.217591	 -0.953497
H	 0.129920	 1.693110	 0.675679
C	 -2.450172	 1.854464	 1.048856
H	 -1.752811	 -0.160516	 1.194284
H	 -2.276532	 0.279509	 -0.401848
C	 -3.865973	 1.527799	 1.512834
H	 -1.876868	 2.241200	 1.887183
H	 -2.496496	 2.653303	 0.315599
H	 -4.355621	 2.402479	 1.924977
H	 -3.858977	 0.760151	 2.279232
H	 -4.473387	 1.165936	 0.689877

12 9 6 10 F
