%nprocshared=1
%mem=2GB
#HF/6-31G* nosymm scf=tight 

Mol

0 1
H	 -3.261111	 -0.295142	 1.469456
C	 -3.306842	 -0.277400	 0.373456
C	 -2.660244	 0.921717	 -0.272021
O	 -3.838538	 -1.161155	 -0.216482
C	 -1.220012	 1.144545	 0.209990
H	 -2.705793	 0.797307	 -1.347733
H	 -3.263782	 1.790044	 -0.010477
C	 -0.252658	 0.041456	 -0.226725
H	 -0.873521	 2.100229	 -0.171974
H	 -1.211708	 1.231594	 1.295398
C	 1.180775	 0.282413	 0.250794
H	 -0.266029	 -0.034465	 -1.312038
H	 -0.597733	 -0.921000	 0.146291
C	 2.148627	 -0.814315	 -0.201312
H	 1.516199	 1.249228	 -0.115937
H	 1.192670	 0.346017	 1.338083
C	 3.580890	 -0.659131	 0.322722
H	 2.166869	 -0.852443	 -1.289387
H	 1.762857	 -1.776509	 0.128956
C	 3.968018	 -1.653489	 1.418625
H	 3.696386	 0.349518	 0.711613
H	 4.279390	 -0.745476	 -0.507076
H	 3.276355	 -1.600809	 2.255342
H	 3.972166	 -2.676185	 1.056617
H	 4.962323	 -1.439492	 1.798833

6 3 5 8 F
6 3 2 4 F
3 5 8 12 F
12 8 11 14 F
8 11 14 18 F
