%nprocshared=4
%mem=2GB
#HF/6-31G* nosymm scf=tight opt=ModRedundant

Mol

0 1
H	 4.426766	 -0.022299	 -1.270079
C	 3.641817	 -0.526078	 -0.715271
C	 2.348014	 0.286801	 -0.731519
H	 3.496406	 -1.504329	 -1.164835
H	 4.000478	 -0.678679	 0.298792
C	 1.217350	 -0.386724	 0.039429
H	 2.020464	 0.449683	 -1.753561
H	 2.535992	 1.271051	 -0.305718
N	 0.000003	 0.397874	 -0.023260
H	 1.011846	 -1.358388	 -0.401705
H	 1.538348	 -0.576343	 1.069179
C	 -1.217365	 -0.386708	 0.039277
H	 -0.000031	 1.072115	 0.718656
C	 -2.452633	 0.504241	 -0.042481
H	 -1.215291	 -1.074557	 -0.802042
H	 -1.269739	 -1.003477	 0.942735
C	 -3.758029	 -0.289423	 -0.010781
H	 -2.394220	 1.093569	 -0.952170
H	 -2.440793	 1.210787	 0.785871
H	 -3.816659	 -0.981993	 -0.845726
H	 -4.617837	 0.370165	 -0.069296
H	 -3.847478	 -0.867502	 0.904682

10 6 9 12 F
