%nprocshared=4
%mem=2GB
#HF/cc-pVTZ nosymm scf=tight opt=ModRedundant

Mol

0 1
O	 3.219313	 0.959291	 -0.614106
C	 2.698710	 0.058177	 -0.050237
C	 1.246364	 -0.005813	 0.348416
O	 3.344101	 -1.038700	 0.312317
C	 0.453207	 1.232821	 -0.049003
H	 0.839270	 -0.907818	 -0.092281
H	 1.216683	 -0.160521	 1.422434
C	 -0.998367	 1.217982	 0.432195
H	 0.481498	 1.345443	 -1.127236
H	 0.951413	 2.105557	 0.354893
C	 -1.882951	 0.151251	 -0.211235
H	 -1.429490	 2.193659	 0.228843
H	 -1.019755	 1.099323	 1.513279
C	 -3.214199	 0.703680	 -0.713617
H	 -1.346934	 -0.302574	 -1.041657
H	 -2.080831	 -0.647837	 0.497170
C	 -4.108816	 -0.354416	 -1.353044
H	 -3.025045	 1.495244	 -1.434718
H	 -3.745492	 1.168213	 0.113911
C	 -5.435980	 0.205439	 -1.854017
H	 -3.579364	 -0.819337	 -2.180238
H	 -4.301127	 -1.144954	 -0.632680
H	 -6.046272	 -0.570698	 -2.301387
H	 -5.278474	 0.974713	 -2.602695
H	 -6.005412	 0.647390	 -1.043071
C	 4.720529	 -1.114346	 0.001449
H	 4.874321	 -1.055557	 -1.065852
H	 5.057824	 -2.067950	 0.373977
H	 5.264321	 -0.313596	 0.480350

15 11 8 5 F
