%nprocshared=4
%mem=2GB
#HF/cc-pVTZ nosymm scf=tight opt=ModRedundant

Mol

0 1
H	 -9.001460	 3.418407	 -1.596819
C	 -8.454261	 3.577840	 -2.535989
C	 -8.369082	 2.372242	 -3.432186
O	 -7.978284	 4.633982	 -2.771186
C	 -6.956740	 2.136117	 -3.975519
H	 -8.736304	 1.511854	 -2.887930
H	 -9.045849	 2.555505	 -4.263875
C	 -5.947521	 1.730972	 -2.903365
H	 -7.006209	 1.362888	 -4.734473
H	 -6.611183	 3.034113	 -4.481866
C	 -5.641798	 2.853761	 -1.915610
H	 -5.026890	 1.412421	 -3.385103
H	 -6.316256	 0.865424	 -2.359040
C	 -6.900381	 3.527547	 -1.372262
H	 -5.052469	 2.451569	 -1.097515
H	 -5.018880	 3.600564	 -2.403008
C	 -7.827821	 4.111512	 -2.439380
H	 -6.614724	 4.314215	 -0.677756
H	 -7.459838	 2.800038	 -0.790848
C	 -7.244121	 5.287623	 -3.218572
H	 -8.743922	 4.435874	 -1.955707
H	 -8.114795	 3.326049	 -3.133643
H	 -6.941812	 6.086551	 -2.549005
H	 -6.377675	 4.999038	 -3.801388
H	 -7.976863	 5.694192	 -3.906144

8 11 14 18 F
