%nprocshared=4
%mem=2GB
#HF/cc-pVTZ nosymm scf=tight opt=ModRedundant

Mol

0 1
O	 3.042008	 -0.988224	 0.050560
C	 2.574127	 -2.072921	 -0.023620
C	 3.300766	 -3.312667	 -0.478981
O	 1.317782	 -2.342573	 0.292610
C	 3.330127	 -3.476650	 -1.993413
H	 4.296922	 -3.265972	 -0.055843
H	 2.815714	 -4.159602	 -0.003845
C	 3.890644	 -2.262769	 -2.735809
H	 2.329278	 -3.694874	 -2.349434
H	 3.928417	 -4.346674	 -2.234488
C	 5.193452	 -1.701493	 -2.168299
H	 3.138545	 -1.479776	 -2.715038
H	 4.033603	 -2.514488	 -3.784370
C	 6.244442	 -2.777876	 -1.910215
H	 5.596170	 -0.966110	 -2.861048
H	 4.999765	 -1.172024	 -1.240029
C	 5.877166	 -3.725351	 -0.771719
H	 7.196971	 -2.303219	 -1.687214
H	 6.398693	 -3.354520	 -2.819365
C	 6.932729	 -4.796610	 -0.518798
H	 5.722919	 -3.150618	 0.137462
H	 4.926681	 -4.202701	 -0.994363
H	 6.641238	 -5.451537	 0.294275
H	 7.887382	 -4.351549	 -0.258669
H	 7.085522	 -5.411238	 -1.399760
C	 0.824678	 -3.623490	 -0.043565
H	 -0.139967	 -3.792406	 0.411591
H	 1.544729	 -4.329140	 0.337866
H	 0.731980	 -3.727573	 -1.114467

6 3 2 1 F
