%nprocshared=4
%mem=2GB
#HF/cc-pVTZ nosymm scf=tight opt=ModRedundant

Mol

0 1
O	 0.395927	 1.296676	 -0.000076
C	 0.503051	 0.114301	 -0.000074
C	 -0.701422	 -0.805636	 -0.000109
C	 1.858118	 -0.556123	 0.000212
C	 -0.614739	 -1.940523	 1.008157
H	 -1.581338	 -0.193424	 0.179830
H	 -0.818902	 -1.191686	 -1.009368
H	 -0.521818	 -1.557964	 2.015749
H	 -1.503500	 -2.558029	 0.956713
H	 0.247370	 -2.565089	 0.816020
H	 1.961106	 -1.191101	 -0.872843
H	 2.636688	 0.191085	 -0.000109
H	 1.961070	 -1.190284	 0.873873

6 3 2 1 F
