%nprocshared=4
%mem=2GB
#HF/cc-pVTZ nosymm scf=tight opt=ModRedundant

Mol

0 1
H	 0.372786	 -3.063731	 -4.270100
O	 1.311417	 -3.054546	 -4.296892
C	 1.799065	 -1.830421	 -3.814203
C	 1.658666	 -1.673376	 -2.307448
H	 2.845903	 -1.802073	 -4.084955
H	 1.312159	 -1.000761	 -4.323160
C	 0.214485	 -1.611354	 -1.815164
H	 2.174607	 -2.497936	 -1.824682
H	 2.177171	 -0.762872	 -2.016704
C	 -0.699221	 -0.832355	 -2.760223
H	 0.190295	 -1.154831	 -0.831291
H	 -0.170624	 -2.623176	 -1.700302
C	 -2.173669	 -0.800847	 -2.353693
H	 -0.330939	 0.186408	 -2.853593
H	 -0.625788	 -1.271749	 -3.751187
C	 -2.890552	 -2.148405	 -2.416191
H	 -2.239038	 -0.421762	 -1.337548
H	 -2.702175	 -0.083157	 -2.977198
C	 -4.328411	 -2.084228	 -1.907415
H	 -2.335707	 -2.876490	 -1.828392
H	 -2.896510	 -2.521577	 -3.435853
C	 -5.048291	 -3.427174	 -1.971928
H	 -4.330452	 -1.723837	 -0.882383
H	 -4.881889	 -1.351089	 -2.488131
H	 -4.536675	 -4.174551	 -1.374505
H	 -6.063908	 -3.346952	 -1.601532
H	 -5.096601	 -3.797271	 -2.990773

10 7 4 8 F
