%nprocshared=4
%mem=2GB
#HF/cc-pVTZ nosymm scf=tight opt=ModRedundant

Mol

0 1
H	 -7.467616	 5.320688	 -0.402849
C	 -6.678626	 4.757536	 0.114105
C	 -5.298556	 5.344806	 -0.005943
O	 -6.945983	 3.764925	 0.697673
C	 -4.237288	 4.297829	 -0.356977
H	 -5.326696	 6.144413	 -0.734758
H	 -5.062413	 5.782456	 0.961530
C	 -4.391599	 3.715541	 -1.760299
H	 -3.258939	 4.756386	 -0.262638
H	 -4.266527	 3.495839	 0.376610
C	 -5.641798	 2.853761	 -1.915610
H	 -3.512013	 3.122767	 -1.997055
H	 -4.417350	 4.519302	 -2.491553
C	 -6.900381	 3.527547	 -1.372262
H	 -5.773434	 2.611184	 -2.965454
H	 -5.491865	 1.907934	 -1.399636
C	 -7.827821	 4.111512	 -2.439380
H	 -6.614724	 4.314215	 -0.677756
H	 -7.459838	 2.800038	 -0.790848
C	 -7.244121	 5.287623	 -3.218572
H	 -8.743922	 4.435874	 -1.955707
H	 -8.114795	 3.326049	 -3.133643
H	 -6.941812	 6.086551	 -2.549005
H	 -6.377675	 4.999038	 -3.801388
H	 -7.976863	 5.694192	 -3.906144

8 11 14 18 F
