%nprocshared=1
%mem=2GB
#HF/6-31G* nosymm scf=tight opt=ModRedundant

Mol

0 1
H	 -1.044885	 6.053676	 4.186817
C	 -1.863692	 5.342285	 4.142098
C	 -1.711215	 4.398832	 2.949695
H	 -1.873206	 4.789755	 5.076957
H	 -2.789929	 5.907288	 4.081648
C	 -2.854226	 3.385925	 2.852963
H	 -0.766151	 3.871370	 3.028683
H	 -1.669887	 4.983272	 2.031864
C	 -2.738377	 2.439231	 1.658134
H	 -2.898648	 2.799585	 3.763938
H	 -3.797718	 3.921377	 2.774512
C	 -1.624063	 1.410241	 1.779483
H	 -3.665312	 1.879835	 1.541352
H	 -2.612434	 2.995774	 0.732080
C	 -1.181045	 0.701995	 0.511084
O	 -1.124233	 1.150470	 2.832619
C	 -2.285934	 -0.139295	 -0.145128
H	 -0.339612	 0.073377	 0.776686
H	 -0.828726	 1.449419	 -0.197374
C	 -3.651768	 0.085446	 0.506485
H	 -2.346596	 0.110469	 -1.202272
H	 -2.034737	 -1.195320	 -0.088721
C	 -4.759797	 -0.746382	 -0.137905
H	 -3.908762	 1.140117	 0.445781
H	 -3.588286	 -0.154158	 1.565709
H	 -4.868882	 -0.505166	 -1.191300
H	 -4.548009	 -1.809175	 -0.062213
H	 -5.715422	 -0.564821	 0.343442

12 15 17 21 F
