%nprocshared=4
%mem=2GB
#HF/cc-pVTZ nosymm scf=tight opt=ModRedundant

Mol

0 1
H	 -8.866824	 3.993972	 -1.998694
C	 -8.078559	 4.379406	 -2.659727
C	 -7.919914	 3.634976	 -3.957627
O	 -7.425536	 5.305703	 -2.323805
C	 -6.457661	 3.316784	 -4.283582
H	 -8.523876	 2.737843	 -3.916179
H	 -8.327807	 4.276936	 -4.735326
C	 -5.822754	 2.307557	 -3.329363
H	 -6.407684	 2.934916	 -5.297494
H	 -5.879424	 4.237554	 -4.279200
C	 -5.641798	 2.853761	 -1.915610
H	 -4.857708	 2.003150	 -3.725761
H	 -6.428848	 1.406138	 -3.290363
C	 -6.900381	 3.527547	 -1.372262
H	 -5.342327	 2.041619	 -1.260562
H	 -4.822584	 3.569409	 -1.909682
C	 -7.827821	 4.111512	 -2.439380
H	 -6.614724	 4.314215	 -0.677756
H	 -7.459838	 2.800038	 -0.790848
C	 -7.244121	 5.287623	 -3.218572
H	 -8.743922	 4.435874	 -1.955707
H	 -8.114795	 3.326049	 -3.133643
H	 -6.941812	 6.086551	 -2.549005
H	 -6.377675	 4.999038	 -3.801388
H	 -7.976863	 5.694192	 -3.906144

8 11 14 18 F
