%nprocshared=4
%mem=2GB
#HF/cc-pVTZ nosymm scf=tight opt=ModRedundant

Mol

0 1
O	 1.216069	 1.304886	 0.000886
C	 1.121787	 0.124983	 0.000110
C	 -0.170912	 -0.649867	 -0.000239
O	 2.167739	 -0.685178	 -0.000678
C	 -1.413045	 0.229353	 0.001040
H	 -0.152842	 -1.303390	 -0.866301
H	 -0.152313	 -1.305161	 0.864460
C	 -2.702562	 -0.586401	 0.000037
H	 -1.390709	 0.882046	 -0.864427
H	 -1.390584	 0.879792	 0.868202
C	 -3.953810	 0.284959	 -0.000978
H	 -2.717758	 -1.238522	 -0.869300
H	 -2.719143	 -1.238517	 0.869351
H	 -3.983691	 0.924448	 -0.876618
H	 -4.852989	 -0.320147	 -0.001779
H	 -3.985175	 0.924353	 0.874677
C	 3.449556	 -0.089977	 -0.000570
H	 3.585694	 0.522473	 -0.879546
H	 4.155805	 -0.904274	 -0.001389
H	 3.586173	 0.521118	 0.879272

1 2 4 17 F
