%nprocshared=4
%mem=2GB
#HF/cc-pVTZ nosymm scf=tight opt=ModRedundant

Mol

0 1
H	 -1.835082	 1.385983	 0.000069
C	 -1.300516	 0.441153	 -0.000028
O	 -0.006604	 0.654344	 -0.000106
O	 -1.828920	 -0.612308	 0.000113
C	 0.544549	 1.384445	 1.092142
C	 2.033434	 1.498117	 0.866308
H	 0.318955	 0.861872	 2.010828
H	 0.072356	 2.355524	 1.136883
H	 2.492187	 0.518650	 0.819821
H	 2.484516	 2.050022	 1.682262
H	 2.244352	 2.019790	 -0.058538

5 3 2 4 F
