%nprocshared=1
%mem=2GB
#HF/6-31G* nosymm scf=tight 

Mol

0 1
H	 0.930363	 -0.729716	 -1.449755
O	 0.569474	 0.031589	 -1.883376
C	 0.272150	 1.004181	 -0.924404
C	 -0.793441	 0.596080	 0.058728
H	 -0.054940	 1.879956	 -1.473250
H	 1.168682	 1.296240	 -0.378549
C	 -1.530462	 -0.493172	 -0.025500
H	 -0.937594	 1.277826	 0.882697
H	 -1.092586	 -1.461565	 -0.186463
H	 -2.602122	 -0.450675	 0.050101

5 3 2 1 F
5 3 4 7 F
