%nprocshared=4
%mem=2GB
#HF/cc-pVTZ nosymm scf=tight opt=ModRedundant

Mol

0 1
H	 -3.436473	 1.252944	 -1.023892
O	 -3.458596	 0.315260	 -0.960865
C	 -3.176635	 -0.080824	 0.355601
C	 -1.763371	 0.265266	 0.799691
H	 -3.321825	 -1.153438	 0.379502
H	 -3.895468	 0.357385	 1.043382
C	 -0.673390	 -0.426948	 -0.013392
H	 -1.631049	 1.344913	 0.747560
H	 -1.664587	 -0.001624	 1.849167
C	 -0.472169	 -1.889696	 0.373714
H	 0.259371	 0.112924	 0.106646
H	 -0.927037	 -0.365373	 -1.069033
C	 -1.784142	 -2.666227	 0.467389
H	 0.185338	 -2.358738	 -0.351940
H	 0.042692	 -1.942458	 1.330788
C	 -2.709708	 -2.231537	 1.605028
H	 -1.566300	 -3.726895	 0.569258
H	 -2.319322	 -2.557106	 -0.471916
C	 -2.170807	 -2.506512	 3.006854
H	 -3.658576	 -2.746691	 1.490828
H	 -2.927614	 -1.171416	 1.504620
H	 -1.938113	 -3.558932	 3.134697
H	 -2.902954	 -2.237493	 3.759736
H	 -1.269969	 -1.941378	 3.213544

11 7 4 3 F
