%nprocshared=4
%mem=2GB
#HF/cc-pVTZ nosymm scf=tight opt=ModRedundant

Mol

0 1
O	 3.042008	 -0.988224	 0.050560
C	 2.574127	 -2.072921	 -0.023620
C	 3.300766	 -3.312667	 -0.478981
O	 1.317782	 -2.342573	 0.292610
C	 4.340240	 -3.043819	 -1.559939
H	 3.739366	 -3.761654	 0.403964
H	 2.548614	 -4.014048	 -0.826346
C	 5.362391	 -1.971089	 -1.181394
H	 3.837056	 -2.763608	 -2.478829
H	 4.860773	 -3.968816	 -1.775426
C	 5.971295	 -2.119867	 0.211986
H	 4.872664	 -1.003887	 -1.243461
H	 6.158698	 -1.952894	 -1.922235
C	 6.461423	 -3.536259	 0.500771
H	 6.802091	 -1.425386	 0.313698
H	 5.245153	 -1.839753	 0.969475
C	 5.333293	 -4.556575	 0.623455
H	 7.043286	 -3.534341	 1.419341
H	 7.141667	 -3.848748	 -0.288206
C	 5.830721	 -5.968693	 0.913741
H	 4.652859	 -4.245787	 1.411579
H	 4.752428	 -4.561738	 -0.294927
H	 5.005812	 -6.667262	 0.994434
H	 6.386146	 -6.004157	 1.845060
H	 6.487271	 -6.322139	 0.125563
C	 0.824678	 -3.623490	 -0.043565
H	 -0.139967	 -3.792406	 0.411591
H	 1.544729	 -4.329140	 0.337866
H	 0.731980	 -3.727573	 -1.114467

6 3 2 1 F
