%nprocshared=4
%mem=2GB
#HF/cc-pVTZ nosymm scf=tight opt=ModRedundant

Mol

0 1
O	 -0.183095	 -0.600390	 -2.969009
C	 -0.738227	 0.050701	 -2.144788
C	 -0.881910	 -0.448129	 -0.720509
C	 -1.310991	 1.411177	 -2.463877
C	 0.376695	 -0.140025	 0.100361
H	 -1.035196	 -1.519049	 -0.762286
H	 -1.748977	 0.002726	 -0.249565
C	 1.630207	 -0.772146	 -0.501001
H	 0.486632	 0.935267	 0.162725
H	 0.248225	 -0.501310	 1.117842
C	 2.907848	 -0.545876	 0.309149
H	 1.772784	 -0.391628	 -1.509394
H	 1.468529	 -1.842059	 -0.599744
C	 3.373802	 0.906639	 0.372125
H	 3.699140	 -1.146831	 -0.127906
H	 2.764321	 -0.923458	 1.318191
H	 3.519798	 1.311927	 -0.623875
H	 4.316899	 0.983758	 0.900700
H	 2.661122	 1.540651	 0.885346
H	 -2.393801	 1.364953	 -2.405715
H	 -1.016288	 1.715431	 -3.456424
H	 -0.982382	 2.145165	 -1.736645

6 3 5 8 F
