%nprocshared=4
%mem=2GB
#HF/cc-pVTZ nosymm scf=tight opt=ModRedundant

Mol

0 1
O	 -0.988175	 -1.402891	 0.050086
C	 -0.675048	 -0.248293	 -0.009686
C	 -1.742492	 0.826599	 -0.011538
N	 0.622280	 0.144970	 -0.099307
H	 -1.692153	 1.431066	 -0.908439
H	 -2.698310	 0.331559	 0.031353
H	 -1.642148	 1.483784	 0.843455
C	 0.964516	 1.509203	 0.243754
C	 1.637390	 -0.582469	 -0.823282
H	 1.914889	 1.523464	 0.763185
H	 0.203926	 1.923390	 0.880255
H	 1.051868	 2.129773	 -0.644444
H	 2.592265	 -0.444294	 -0.332613
H	 1.432179	 -1.639048	 -0.843899
H	 1.735791	 -0.231066	 -1.847917

8 4 2 3 F
