%nprocshared=4
%mem=2GB
#HF/cc-pVTZ nosymm scf=tight opt=ModRedundant

Mol

0 1
O	 1.371313	 1.045657	 0.700935
C	 1.121787	 0.124983	 0.000110
C	 -0.170912	 -0.649867	 -0.000147
O	 1.969101	 -0.353489	 -0.896273
C	 -1.413045	 0.229353	 0.001137
H	 -0.152877	 -1.303435	 -0.866175
H	 -0.152278	 -1.305116	 0.864586
C	 -2.701154	 -0.584533	 0.082834
H	 -1.420592	 0.839876	 -0.894823
H	 -1.361789	 0.920516	 0.834930
C	 -3.952468	 0.286733	 0.082512
H	 -2.745221	 -1.277486	 -0.753297
H	 -2.687725	 -1.194301	 0.982411
H	 -4.012536	 0.883621	 -0.821204
H	 -4.850637	 -0.317033	 0.141114
H	 -3.954710	 0.967312	 0.927135
C	 3.226978	 0.281687	 -1.004047
H	 3.107866	 1.319775	 -1.276836
H	 3.762124	 -0.246898	 -1.776112
H	 3.765395	 0.222432	 -0.069799

9 5 3 6 F
