%nprocshared=1
%mem=2GB
#HF/6-31G* nosymm scf=tight 

Mol

0 1
O	 -2.439739	 -0.935931	 -0.423848
C	 -1.921153	 0.064240	 -0.045697
C	 -2.624470	 1.379923	 0.150949
O	 -0.632575	 0.154573	 0.251549
H	 -2.168117	 2.136577	 -0.476876
H	 -3.669540	 1.273223	 -0.098610
H	 -2.519365	 1.700893	 1.180846
C	 0.160891	 -1.019931	 0.106212
C	 1.589627	 -0.672828	 0.480843
H	 0.089836	 -1.367806	 -0.916050
H	 -0.238459	 -1.792301	 0.749618
C	 2.366621	 0.040322	 -0.627353
H	 2.093933	 -1.601225	 0.741010
H	 1.578313	 -0.060565	 1.378765
C	 3.808090	 0.350565	 -0.226207
H	 2.365545	 -0.579556	 -1.521696
H	 1.855580	 0.961178	 -0.888540
H	 4.337117	 0.856523	 -1.027561
H	 4.355601	 -0.557649	 0.009713
H	 3.841636	 0.993051	 0.649102

16 12 9 8 F
2 4 8 10 F
1 2 4 8 F
