%nprocshared=4
%mem=2GB
#HF/cc-pVTZ nosymm scf=tight opt=ModRedundant

Mol

0 1
O	 -0.661489	 -1.654523	 1.661367
C	 -1.523129	 -1.436538	 0.878753
C	 -2.789244	 -2.244153	 0.783920
O	 -1.481217	 -0.452708	 0.001092
H	 -3.292492	 -2.208695	 1.740771
H	 -3.443818	 -1.877968	 0.009271
H	 -2.525724	 -3.274947	 0.588738
C	 -0.332055	 0.384012	 -0.000250
C	 0.892252	 -0.506059	 -0.000295
H	 -0.360822	 1.020205	 -0.874146
H	 -0.359817	 1.021310	 0.872861
C	 2.188199	 0.299473	 -0.001416
H	 0.857046	 -1.152781	 -0.871031
H	 0.857910	 -1.151798	 0.871202
C	 3.377038	 -0.480111	 0.553593
H	 2.414150	 0.621368	 -1.014977
H	 2.051900	 1.206289	 0.582606
C	 4.672017	 0.324896	 0.553748
H	 3.515341	 -1.385649	 -0.030299
H	 3.152473	 -0.802174	 1.566477
H	 4.941773	 0.632584	 -0.450944
H	 5.494845	 -0.256321	 0.953308
H	 4.575980	 1.220759	 1.157950

16 12 9 13 F
