%nprocshared=4
%mem=2GB
#HF/cc-pVTZ nosymm scf=tight opt=ModRedundant

Mol

0 1
O	 -2.440701	 -0.934798	 -0.415053
C	 -1.922978	 0.063265	 -0.045005
C	 -2.632749	 1.372204	 0.158357
O	 -0.637375	 0.157174	 0.243149
H	 -2.187724	 2.129143	 -0.474664
H	 -3.677681	 1.257276	 -0.079438
H	 -2.516788	 1.693160	 1.185542
C	 0.162530	 -1.009518	 0.097799
C	 1.587210	 -0.664190	 0.477086
H	 0.096803	 -1.356267	 -0.924704
H	 -0.233803	 -1.785900	 0.736810
C	 2.301891	 -1.748039	 1.279747
H	 1.553733	 0.254610	 1.056242
H	 2.147656	 -0.442921	 -0.426118
C	 3.722797	 -1.352405	 1.667196
H	 1.729027	 -1.962179	 2.178117
H	 2.325602	 -2.665668	 0.703346
H	 4.204925	 -2.136782	 2.238764
H	 3.729470	 -0.451237	 2.271549
H	 4.329656	 -1.163843	 0.787888

12 9 8 10 F
