%nprocshared=4
%mem=2GB
#HF/cc-pVTZ nosymm scf=tight opt=ModRedundant

Mol

0 1
O	 -2.581479	 -0.946811	 0.838356
C	 -1.813516	 -1.372594	 0.038123
C	 -0.881910	 -0.448129	 -0.720509
C	 -1.710338	 -2.851137	 -0.251765
C	 0.376695	 -0.140025	 0.100361
H	 -1.420585	 0.469998	 -0.917951
H	 -0.603274	 -0.891516	 -1.670580
C	 1.630207	 -0.772146	 -0.501001
H	 0.486632	 0.935267	 0.162725
H	 0.248225	 -0.501310	 1.117842
C	 2.907848	 -0.545876	 0.309149
H	 1.772784	 -0.391628	 -1.509394
H	 1.468529	 -1.842059	 -0.599744
C	 3.373802	 0.906639	 0.372125
H	 3.699140	 -1.146831	 -0.127906
H	 2.764321	 -0.923458	 1.318191
H	 3.519798	 1.311927	 -0.623875
H	 4.316899	 0.983758	 0.900700
H	 2.661122	 1.540651	 0.885346
H	 -2.061693	 -3.042211	 -1.260743
H	 -2.309378	 -3.410569	 0.450201
H	 -0.678071	 -3.179464	 -0.204694

6 3 5 8 F
