%nprocshared=4
%mem=2GB
#HF/6-31G* nosymm scf=tight opt=ModRedundant

Mol

0 1
H	 -1.099389	 -0.821131	 0.860622
N	 -0.626943	 -0.667432	 -0.000092
C	 -1.146847	 -1.304664	 -1.188516
C	 0.469286	 0.129090	 0.000148
H	 -1.145508	 -2.384373	 -1.082533
H	 -0.516038	 -1.033799	 -2.019442
H	 -2.160265	 -0.976420	 -1.394118
C	 1.788933	 -0.616240	 -0.000037
O	 0.411098	 1.327768	 -0.000049
H	 1.872803	 -1.245775	 -0.880381
H	 2.595421	 0.101576	 0.003713
H	 1.870096	 -1.252171	 0.875943

3 2 4 9 F
