%nprocshared=4
%mem=2GB
#HF/cc-pVTZ nosymm scf=tight opt=ModRedundant

Mol

0 1
H	 1.721971	 -1.628841	 1.019849
C	 0.856761	 -1.022167	 1.227673
O	 0.462329	 -0.453336	 -0.000137
H	 1.123582	 -0.255907	 1.944521
H	 0.073666	 -1.647871	 1.636934
C	 -0.590565	 0.341382	 0.000062
O	 -1.693898	 -0.053880	 0.000252
H	 -0.340426	 1.403822	 0.000200

2 3 6 7 F
