%nprocshared=4
%mem=2GB
#HF/cc-pVTZ nosymm scf=tight opt=ModRedundant

Mol

0 1
H	 -2.816458	 -0.841657	 -0.064679
N	 -1.878861	 -0.711874	 0.250184
C	 -1.341419	 0.551458	 -0.220231
H	 -1.333674	 -1.468530	 -0.105118
C	 -2.187207	 1.703403	 0.272023
H	 -0.311159	 0.725600	 0.087634
H	 -1.361859	 0.555210	 -1.304491
O	 -2.099052	 1.764150	 1.663514
H	 -1.833225	 2.635499	 -0.166231
H	 -3.220623	 1.554321	 -0.032535
C	 -2.890388	 2.744249	 2.248675
H	 -2.739101	 2.699357	 3.317545
H	 -2.616964	 3.737489	 1.898806
H	 -3.944783	 2.583264	 2.036782

6 3 2 4 F
