%nprocshared=4
%mem=2GB
#HF/6-31G* nosymm scf=tight opt=ModRedundant

Mol

0 1
H	 -3.161837	 0.500524	 -0.000234
C	 -2.367097	 -0.232926	 -0.000000
O	 -1.158440	 0.455814	 -0.000122
H	 -2.468853	 -0.861886	 -0.882833
H	 -2.468942	 -0.861421	 0.883154
C	 -0.029776	 -0.365156	 0.000148
C	 -0.271111	 -1.530598	 -0.943337
H	 0.169136	 -0.729534	 1.008891
H	 0.847025	 0.202002	 -0.315224
C	 0.918729	 -2.487227	 -1.006758
H	 -1.160702	 -2.059914	 -0.616055
H	 -0.487505	 -1.134962	 -1.930933
H	 1.136934	 -2.913710	 -0.031605
H	 0.719508	 -3.308390	 -1.687088
H	 1.815236	 -1.981985	 -1.355197

8 6 3 2 F
