%nprocshared=4
%mem=2GB
#HF/cc-pVTZ nosymm scf=tight opt=ModRedundant

Mol

0 1
H	 -3.436473	 1.252944	 -1.023892
O	 -3.458596	 0.315260	 -0.960865
C	 -3.176635	 -0.080824	 0.355601
C	 -1.763371	 0.265266	 0.799691
H	 -3.321825	 -1.153438	 0.379502
H	 -3.895468	 0.357385	 1.043382
C	 -0.673390	 -0.426948	 -0.013392
H	 -1.631049	 1.344913	 0.747560
H	 -1.664587	 -0.001624	 1.849167
C	 0.656875	 -0.528351	 0.728284
H	 -0.530115	 0.106736	 -0.946434
H	 -1.012761	 -1.424454	 -0.282308
C	 0.503673	 -1.047795	 2.156484
H	 1.324088	 -1.176029	 0.167721
H	 1.131732	 0.450283	 0.753657
C	 -0.241420	 -0.108694	 3.106628
H	 1.487454	 -1.264364	 2.566513
H	 -0.025597	 -1.996230	 2.125445
C	 0.482666	 1.201454	 3.407217
H	 -0.413101	 -0.632748	 4.041865
H	 -1.224611	 0.108988	 2.697521
H	 1.472185	 1.014999	 3.812390
H	 -0.066852	 1.785794	 4.136476
H	 0.598372	 1.813884	 2.521132

11 7 4 3 F
