%nprocshared=4
%mem=2GB
#HF/cc-pVTZ nosymm scf=tight opt=ModRedundant

Mol

0 1
O	 1.216069	 1.304886	 0.000821
C	 1.121787	 0.124983	 0.000110
C	 -0.170912	 -0.649867	 -0.000147
O	 2.167739	 -0.685178	 -0.000678
C	 -1.413045	 0.229353	 0.001137
H	 -0.152877	 -1.303435	 -0.866175
H	 -0.152278	 -1.305116	 0.864586
C	 -2.680477	 -0.555676	 0.326184
H	 -1.514895	 0.706754	 -0.966982
H	 -1.283461	 1.031344	 0.719164
C	 -3.931847	 0.315507	 0.327935
H	 -2.803129	 -1.359821	 -0.394612
H	 -2.572418	 -1.031858	 1.297169
H	 -4.086629	 0.778681	 -0.640619
H	 -4.815169	 -0.267539	 0.561334
H	 -3.854326	 1.108932	 1.063495
C	 3.449556	 -0.089977	 -0.000570
H	 3.585694	 0.522473	 -0.879546
H	 4.155805	 -0.904274	 -0.001389
H	 3.586173	 0.521118	 0.879272

9 5 3 6 F
