%nprocshared=4
%mem=2GB
#HF/6-31G* nosymm scf=tight opt=ModRedundant

Mol

0 1
H	 1.167217	 2.146376	 3.105815
O	 2.104130	 2.038289	 3.031093
C	 2.436390	 0.679845	 3.166324
C	 2.054126	 -0.156454	 1.950099
H	 3.509343	 0.651845	 3.306547
H	 1.982125	 0.264075	 4.064966
C	 0.547372	 -0.222665	 1.688993
H	 2.557992	 0.252544	 1.078200
H	 2.440432	 -1.163804	 2.096320
C	 0.192759	 -1.113011	 0.494692
H	 0.170229	 0.781675	 1.517442
H	 0.042035	 -0.599907	 2.578186
C	 -1.309753	 -1.282496	 0.241564
H	 0.666004	 -0.715349	 -0.401272
H	 0.627910	 -2.097138	 0.655431
C	 -2.037799	 -0.007733	 -0.193645
H	 -1.443230	 -2.038352	 -0.529592
H	 -1.782740	 -1.679763	 1.138391
C	 -3.489788	 0.042957	 0.286558
H	 -2.017067	 0.064384	 -1.280144
H	 -1.513726	 0.868678	 0.179924
C	 -4.216917	 1.317354	 -0.141063
H	 -4.025645	 -0.823308	 -0.095450
H	 -3.513059	 -0.038752	 1.371301
H	 -4.239342	 1.411634	 -1.223113
H	 -5.243387	 1.322503	 0.212445
H	 -3.726170	 2.201406	 0.256408

10 13 16 20 F
