%nprocshared=4
%mem=2GB
#HF/6-31G* nosymm scf=tight opt=ModRedundant

Mol

0 1
O	 1.846825	 1.296220	 0.000415
C	 1.705091	 0.115954	 0.001797
C	 0.381791	 -0.609817	 0.001258
O	 2.721346	 -0.737485	 -0.000216
C	 -0.823008	 0.326187	 0.001381
H	 0.371250	 -1.265087	 -0.865474
H	 0.370908	 -1.265746	 0.867490
C	 -1.671179	 0.180323	 1.265656
H	 -1.430705	 0.126915	 -0.875650
H	 -0.479515	 1.351257	 -0.096357
C	 -2.884679	 1.111456	 1.282072
H	 -2.009589	 -0.850501	 1.359877
H	 -1.055588	 0.379052	 2.141690
C	 -3.731080	 0.966127	 2.546088
H	 -3.502019	 0.912427	 0.408906
H	 -2.548203	 2.141622	 1.188911
H	 -4.111461	 -0.046226	 2.649366
H	 -4.582896	 1.638836	 2.528106
H	 -3.149876	 1.192314	 3.435667
C	 4.024888	 -0.184556	 -0.001949
H	 4.179030	 0.422472	 -0.882452
H	 4.701782	 -1.024608	 -0.003642
H	 4.181981	 0.421185	 0.878906

9 5 3 6 F
