%nprocshared=4
%mem=2GB
#HF/cc-pVTZ nosymm scf=tight opt=ModRedundant

Mol

0 1
H	 -2.816458	 -0.841657	 -0.064679
N	 -1.878861	 -0.711874	 0.250184
C	 -1.341419	 0.551458	 -0.220231
H	 -1.333674	 -1.468530	 -0.105118
C	 0.082190	 0.731516	 0.254705
H	 -1.357065	 0.652078	 -1.304747
H	 -1.939897	 1.357530	 0.189797
O	 0.881195	 -0.248324	 -0.336237
H	 0.440901	 1.722476	 -0.020063
H	 0.119896	 0.643586	 1.338114
C	 0.582598	 -0.509600	 -1.667325
H	 1.256687	 -1.279389	 -2.014332
H	 -0.439931	 -0.862588	 -1.783638
H	 0.713194	 0.375477	 -2.285506

11 8 5 3 F
