%nprocshared=4
%mem=2GB
#HF/cc-pVTZ nosymm scf=tight opt=ModRedundant

Mol

0 1
O	 -0.694481	 1.313155	 -0.204815
C	 -0.862519	 0.151932	 -0.046791
C	 -2.171428	 -0.477048	 0.339095
O	 0.085519	 -0.757083	 -0.192238
H	 -2.467997	 -1.191667	 -0.417688
H	 -2.923379	 0.287970	 0.444097
H	 -2.053854	 -1.015120	 1.270901
C	 1.392036	 -0.330828	 -0.560749
C	 1.427568	 1.147881	 -0.886408
H	 1.736282	 -0.921222	 -1.395462
H	 2.004446	 -0.549639	 0.301125
H	 2.447641	 1.449022	 -1.096690
H	 0.822686	 1.366878	 -1.755626
H	 1.065567	 1.732805	 -0.049501

10 8 4 2 F
