%nprocshared=4
%mem=2GB
#HF/cc-pVTZ nosymm scf=tight opt=ModRedundant

Mol

0 1
H	 3.037503	 -1.079504	 -1.128671
O	 2.130519	 -1.319420	 -1.185646
C	 1.342725	 -0.401333	 -0.592381
C	 1.856546	 0.736244	 0.011430
C	 -0.019227	 -0.622843	 -0.598764
H	 2.917762	 0.907225	 0.015481
C	 1.008747	 1.648375	 0.606583
H	 -0.419145	 -1.500456	 -1.064280
C	 -0.861704	 0.296439	 0.000000
H	 1.417624	 2.524880	 1.070677
C	 -0.354905	 1.434205	 0.604538
C	 -2.330689	 0.069587	 0.000000
H	 -1.016637	 2.141705	 1.066536
O	 -2.848621	 -0.993976	 0.000000
H	 -2.934306	 0.982410	 0.000000

11 9 12 14 F
