%nprocshared=4
%mem=2GB
#HF/6-31G* nosymm scf=tight opt=ModRedundant

Mol

0 1
O	 3.225979	 0.970355	 -0.599647
C	 2.701189	 0.057885	 -0.047330
C	 1.245376	 -0.013843	 0.345420
O	 3.347903	 -1.046386	 0.304773
C	 0.455112	 1.231400	 -0.050772
H	 0.838542	 -0.913825	 -0.103701
H	 1.208210	 -0.175333	 1.419774
C	 -0.998893	 1.219485	 0.433193
H	 0.482531	 1.345121	 -1.130325
H	 0.957290	 2.103070	 0.354729
C	 -1.883438	 0.145884	 -0.207175
H	 -1.431207	 2.195402	 0.224832
H	 -1.019646	 1.105716	 1.516076
C	 -1.844671	 -1.184668	 0.547231
H	 -2.910264	 0.506122	 -0.248122
H	 -1.578523	 -0.025492	 -1.237044
C	 -2.720847	 -2.266611	 -0.086683
H	 -2.161573	 -1.024104	 1.576322
H	 -0.816661	 -1.540100	 0.597849
C	 -2.679517	 -3.591000	 0.674885
H	 -3.748292	 -1.912681	 -0.138956
H	 -2.402790	 -2.431608	 -1.114008
H	 -3.310007	 -4.337303	 0.201470
H	 -3.025368	 -3.466319	 1.697156
H	 -1.669377	 -3.988840	 0.715065
C	 4.728119	 -1.109107	 -0.004993
H	 4.882018	 -1.033965	 -1.071845
H	 5.068212	 -2.067527	 0.355250
H	 5.265056	 -0.311663	 0.488280

15 11 8 5 F
