%nprocshared=1
%mem=2GB
#HF/6-31G* nosymm scf=tight 

Mol

0 1
H	 -2.399413	 -0.626140	 2.219532
C	 -2.326230	 -1.530380	 1.618586
O	 -1.123787	 -1.581817	 0.920858
H	 -2.360060	 -2.389821	 2.273840
H	 -3.181916	 -1.567574	 0.945648
C	 -0.939545	 -0.532492	 0.024075
C	 0.437584	 -0.635026	 -0.588467
H	 -1.688271	 -0.576089	 -0.767888
H	 -1.037987	 0.427743	 0.526332
O	 1.392611	 -0.295398	 0.366430
H	 0.594834	 -1.649408	 -0.949450
H	 0.500878	 0.039676	 -1.443140
C	 2.706965	 -0.449871	 -0.062409
H	 2.756559	 -0.644779	 -1.131878
H	 3.305899	 0.433456	 0.155466
H	 3.125548	 -1.294566	 0.467107

3 6 7 11 F
2 3 6 7 F
