%nprocshared=4
%mem=2GB
#HF/cc-pVTZ nosymm scf=tight opt=ModRedundant

Mol

0 1
H	 -3.170372	 1.658656	 -0.143828
C	 -2.546491	 2.166277	 0.588276
O	 -1.199614	 2.062016	 0.267977
H	 -2.804123	 3.215296	 0.596793
H	 -2.757847	 1.746583	 1.570147
C	 -0.718530	 0.758693	 0.228682
C	 0.718529	 0.758687	 -0.228709
H	 -0.773791	 0.306060	 1.218652
H	 -1.310334	 0.150271	 -0.451775
O	 1.401606	 -0.295166	 0.366636
H	 0.748705	 0.673477	 -1.312803
H	 1.176496	 1.708671	 0.046552
C	 2.714315	 -0.441627	 -0.061017
H	 2.765292	 -0.641548	 -1.128869
H	 3.305661	 0.447341	 0.150952
H	 3.143725	 -1.278506	 0.470147

3 6 7 11 F
