%nprocshared=4
%mem=2GB
#HF/cc-pVTZ nosymm scf=tight opt=ModRedundant

Mol

0 1
H	 0.372786	 -3.063731	 -4.270100
O	 1.311417	 -3.054546	 -4.296892
C	 1.799065	 -1.830421	 -3.814203
C	 1.658666	 -1.673376	 -2.307448
H	 2.845903	 -1.802073	 -4.084955
H	 1.312159	 -1.000761	 -4.323160
C	 2.954928	 -1.298912	 -1.592375
H	 0.900493	 -0.922104	 -2.107647
H	 1.285468	 -2.612918	 -1.906968
C	 3.991796	 -2.420900	 -1.622124
H	 2.734050	 -1.038276	 -0.562674
H	 3.378310	 -0.409706	 -2.056430
C	 5.338173	 -2.073772	 -0.984137
H	 3.579682	 -3.300750	 -1.134012
H	 4.165002	 -2.703220	 -2.656901
C	 6.147034	 -1.007576	 -1.720826
H	 5.156050	 -1.729499	 0.030178
H	 5.935172	 -2.978374	 -0.892253
C	 7.433438	 -0.625007	 -0.993354
H	 5.532808	 -0.119271	 -1.851624
H	 6.398956	 -1.352930	 -2.718959
C	 8.245319	 0.436586	 -1.728040
H	 7.189075	 -0.265726	 0.002528
H	 8.044446	 -1.512933	 -0.854365
H	 7.672518	 1.349356	 -1.854486
H	 9.149070	 0.686559	 -1.184115
H	 8.538092	 0.092744	 -2.714654

8 4 3 2 F
