%nprocshared=4
%mem=2GB
#HF/cc-pVTZ nosymm scf=tight opt=ModRedundant

Mol

0 1
O	 -1.502539	 -1.636016	 1.658529
C	 -0.641195	 -1.408661	 0.878629
C	 0.643623	 -2.187664	 0.751131
O	 -0.695554	 -0.422406	 0.000602
C	 0.755123	 -3.336113	 1.740880
H	 1.459281	 -1.483066	 0.870268
H	 0.704512	 -2.541008	 -0.272283
H	 0.710505	 -2.977335	 2.760441
H	 1.694855	 -3.856684	 1.602107
H	 -0.051134	 -4.044910	 1.607520
C	 -1.852370	 0.402254	 0.000718
C	 -3.063338	 -0.501097	 -0.000437
H	 -1.831732	 1.039442	 -0.872158
H	 -1.832493	 1.038301	 0.874430
H	 -3.071944	 -1.133732	 -0.879113
H	 -3.966302	 0.097976	 -0.000483
H	 -3.072764	 -1.134834	 0.877435

2 4 11 13 F
