%nprocshared=1
%mem=2GB
#HF/6-31G* nosymm scf=tight 

Mol

0 1
H	 3.729471	 -0.928294	 -0.070608
O	 2.826016	 -1.159218	 0.122261
C	 2.077727	 -0.067559	 -0.035091
C	 0.624473	 -0.343591	 0.253101
O	 2.542965	 0.974826	 -0.363729
C	 -0.265902	 0.883932	 0.072916
H	 0.324016	 -1.163849	 -0.390541
H	 0.565024	 -0.726111	 1.268924
C	 -1.728698	 0.646073	 0.462102
H	 -0.209144	 1.219470	 -0.958188
H	 0.135059	 1.692851	 0.673903
C	 -2.003984	 0.641095	 1.968472
H	 -2.035306	 -0.312899	 0.050854
H	 -2.358521	 1.394451	 -0.016864
C	 -3.456130	 0.296670	 2.298806
H	 -1.344006	 -0.077194	 2.450692
H	 -1.766062	 1.611261	 2.396904
H	 -3.627144	 0.301013	 3.370743
H	 -3.719918	 -0.688569	 1.925244
H	 -4.140054	 1.012754	 1.851919

16 12 9 6 F
7 4 6 10 F
5 3 4 7 F
1 2 3 5 F
