%nprocshared=1
%mem=2GB
#HF/6-31G* nosymm scf=tight 
prop=(read,field)

Mol

0 1
H	 3.893328	 0.355393	 -0.101366
N	 3.092994	 -0.246228	 -0.068769
C	 1.865698	 0.531974	 0.018836
H	 3.199653	 -0.826050	 0.741947
C	 0.645885	 -0.382044	 -0.029942
H	 1.842106	 1.207017	 -0.831235
H	 1.815896	 1.155403	 0.915081
C	 -0.679135	 0.379298	 0.025958
H	 0.699138	 -0.976922	 -0.937201
H	 0.693619	 -1.083853	 0.802237
C	 -1.903217	 -0.536970	 -0.023545
H	 -0.726169	 1.082980	 -0.803782
H	 -0.717540	 0.977825	 0.934879
C	 -3.225032	 0.228283	 0.028447
H	 -1.867684	 -1.135006	 -0.931457
H	 -1.860309	 -1.239611	 0.805978
H	 -3.313257	 0.915636	 -0.808260
H	 -4.073360	 -0.448141	 -0.008891
H	 -3.305921	 0.809938	 0.942518

@grid.dat /N
