%nprocshared=4
%mem=2GB
#HF/cc-pVTZ nosymm scf=tight opt=ModRedundant

Mol

0 1
H	 -3.436473	 1.252944	 -1.023892
O	 -3.458596	 0.315260	 -0.960865
C	 -3.176635	 -0.080824	 0.355601
C	 -1.763371	 0.265266	 0.799691
H	 -3.321825	 -1.153438	 0.379502
H	 -3.895468	 0.357385	 1.043382
C	 -0.673390	 -0.426948	 -0.013392
H	 -1.631049	 1.344913	 0.747560
H	 -1.664587	 -0.001624	 1.849167
C	 -1.063486	 -0.653173	 -1.471685
H	 -0.430618	 -1.376827	 0.449971
H	 0.232976	 0.172452	 0.028152
C	 0.033663	 -1.341777	 -2.281090
H	 -1.974502	 -1.242941	 -1.505071
H	 -1.301586	 0.302437	 -1.934259
C	 -0.278006	 -1.518364	 -3.768211
H	 0.245944	 -2.314077	 -1.842434
H	 0.948338	 -0.762710	 -2.187970
C	 -1.430230	 -2.473614	 -4.069906
H	 0.615427	 -1.884658	 -4.264581
H	 -0.490977	 -0.547271	 -4.207576
H	 -1.247736	 -3.452197	 -3.637299
H	 -1.551544	 -2.603923	 -5.139272
H	 -2.372444	 -2.109639	 -3.678295

11 7 4 3 F
