%nprocshared=4
%mem=2GB
#HF/6-31G* nosymm scf=tight opt=ModRedundant

Mol

0 1
O	 2.862325	 1.357334	 0.000267
C	 2.843464	 0.164689	 -0.000222
C	 1.546494	 -0.624492	 -0.000609
C	 4.124123	 -0.644674	 -0.000428
C	 0.291004	 0.242674	 0.000989
H	 1.557904	 -1.283758	 -0.867573
H	 1.558622	 -1.285963	 0.864672
C	 -0.248609	 0.495643	 -1.407765
H	 0.512035	 1.187725	 0.486945
H	 -0.471109	 -0.235846	 0.607908
C	 -1.506883	 1.365333	 -1.418557
H	 0.521856	 0.972485	 -2.011961
H	 -0.466640	 -0.456223	 -1.889929
C	 -2.052659	 1.623011	 -2.824169
H	 -1.289897	 2.317413	 -0.937432
H	 -2.278063	 0.889205	 -0.815582
C	 -3.309413	 2.492635	 -2.826737
H	 -1.283062	 2.100017	 -3.427500
H	 -2.271357	 0.672073	 -3.305569
H	 -3.114519	 3.464422	 -2.381994
H	 -3.671848	 2.657966	 -3.836691
H	 -4.110203	 2.025843	 -2.260182
H	 4.165367	 -1.288615	 -0.874074
H	 4.976217	 0.020734	 -0.001915
H	 4.166763	 -1.286207	 0.874930

9 5 3 6 F
