%nprocshared=1
%mem=2GB
#HF/6-31G* nosymm scf=tight 
prop=(read,field)

Mol

0 1
O	 -0.682971	 1.318871	 -0.186122
C	 -0.860669	 0.152224	 -0.042344
C	 -2.173397	 -0.477091	 0.338323
O	 0.083224	 -0.765153	 -0.202619
H	 -2.477707	 -1.180892	 -0.427619
H	 -2.923159	 0.290993	 0.455513
H	 -2.058859	 -1.028968	 1.264168
C	 1.391903	 -0.334700	 -0.569861
C	 2.197388	 0.093944	 0.642618
H	 1.313234	 0.464466	 -1.291168
H	 1.837122	 -1.196649	 -1.045598
H	 3.210225	 0.343047	 0.341223
H	 1.757379	 0.966182	 1.109479
H	 2.246222	 -0.708130	 1.371115

@grid.dat /N
