%nprocshared=4
%mem=2GB
#HF/cc-pVTZ nosymm scf=tight opt=ModRedundant

Mol

0 1
H	 0.372786	 -3.063731	 -4.270100
O	 1.311417	 -3.054546	 -4.296892
C	 1.799065	 -1.830421	 -3.814203
C	 1.658666	 -1.673376	 -2.307448
H	 2.845903	 -1.802073	 -4.084955
H	 1.312159	 -1.000761	 -4.323160
C	 0.214485	 -1.611354	 -1.815164
H	 2.174607	 -2.497936	 -1.824682
H	 2.177171	 -0.762872	 -2.016704
C	 -0.506945	 -0.339335	 -2.258270
H	 0.201706	 -1.675386	 -0.732233
H	 -0.330089	 -2.477897	 -2.186416
C	 -1.980481	 -0.258311	 -1.855306
H	 0.020809	 0.525894	 -1.864466
H	 -0.442512	 -0.265315	 -3.340322
C	 -2.893679	 -1.276942	 -2.535161
H	 -2.047914	 -0.397778	 -0.779885
H	 -2.351391	 0.745037	 -2.052471
C	 -4.332300	 -1.221874	 -2.027472
H	 -2.496242	 -2.276854	 -2.374889
H	 -2.895427	 -1.118830	 -3.609405
C	 -5.247609	 -2.235061	 -2.706848
H	 -4.340762	 -1.392255	 -0.954403
H	 -4.728035	 -0.221147	 -2.179138
H	 -4.896388	 -3.249029	 -2.546377
H	 -6.258995	 -2.171135	 -2.321984
H	 -5.290680	 -2.067627	 -3.778045

10 7 4 8 F
