%nprocshared=4
%mem=2GB
#HF/cc-pVTZ nosymm scf=tight opt=ModRedundant

Mol

0 1
H	 2.342730	 0.877684	 -1.045694
C	 2.360424	 0.000000	 -0.411793
C	 1.173749	 0.000000	 0.526870
H	 3.286567	 0.000000	 0.151574
H	 2.342730	 -0.877684	 -1.045694
O	 0.000000	 0.000000	 -0.223739
H	 1.203779	 0.876757	 1.172538
H	 1.203779	 -0.876757	 1.172538
C	 -1.173749	 0.000000	 0.526870
C	 -0.819596	 0.026114	 1.997645
H	 -1.763785	 -0.886248	 0.296840
H	 -1.781036	 0.866974	 0.269865
H	 -0.228156	 -0.841846	 2.260926
H	 -1.719508	 0.026559	 2.602030
H	 -0.245425	 0.913229	 2.233923

11 9 6 3 F
