%nprocshared=4
%mem=2GB
#HF/cc-pVTZ nosymm scf=tight opt=ModRedundant

Mol

0 1
O	 1.097998	 0.405942	 0.975346
C	 1.704209	 0.119472	 -0.000093
C	 1.443285	 0.658758	 -1.383108
O	 2.715427	 -0.733672	 0.000025
C	 0.288339	 1.647795	 -1.448141
H	 2.366917	 1.109594	 -1.731104
H	 1.268197	 -0.193240	 -2.031865
C	 0.052404	 2.172691	 -2.861235
H	 0.488116	 2.475060	 -0.776580
H	 -0.611841	 1.170778	 -1.077438
C	 -1.102828	 3.165981	 -2.946577
H	 0.959677	 2.647639	 -3.228019
H	 -0.144196	 1.337824	 -3.530253
C	 -1.338366	 3.690994	 -4.358772
H	 -0.907071	 4.000735	 -2.279476
H	 -2.009876	 2.692151	 -2.582010
H	 -0.459385	 4.201156	 -4.738720
H	 -2.163938	 4.392803	 -4.383830
H	 -1.571300	 2.882275	 -5.043571
C	 4.020999	 -0.192556	 0.000019
H	 4.182809	 0.412891	 -0.879449
H	 4.692590	 -1.035653	 0.000152
H	 4.182726	 0.413087	 0.879368

1 2 4 20 F
