%nprocshared=4
%mem=2GB
#HF/cc-pVTZ nosymm scf=tight opt=ModRedundant

Mol

0 1
H	 -3.258660	 -0.290394	 1.471450
C	 -3.307964	 -0.275695	 0.374072
C	 -2.653809	 0.914422	 -0.273689
O	 -3.855140	 -1.148880	 -0.205112
C	 -1.459348	 0.529468	 -1.151611
H	 -3.403635	 1.456343	 -0.835307
H	 -2.311121	 1.557754	 0.533772
C	 -1.845703	 -0.261952	 -2.399236
H	 -0.943569	 1.437047	 -1.445913
H	 -0.748556	 -0.043455	 -0.561079
C	 -0.646539	 -0.628772	 -3.269425
H	 -2.552319	 0.320780	 -2.984235
H	 -2.370658	 -1.169242	 -2.111706
C	 -1.037304	 -1.409820	 -4.522627
H	 -0.121778	 0.280272	 -3.546208
H	 0.054024	 -1.220123	 -2.683923
C	 0.139102	 -1.870753	 -5.384898
H	 -1.708399	 -0.804627	 -5.127737
H	 -1.607500	 -2.284516	 -4.222481
C	 0.929387	 -0.742254	 -6.042946
H	 -0.242479	 -2.526175	 -6.161564
H	 0.810140	 -2.476498	 -4.781502
H	 0.282320	 -0.115331	 -6.648146
H	 1.415986	 -0.107231	 -5.312432
H	 1.701044	 -1.141228	 -6.691274

6 3 2 4 F
