%nprocshared=4
%mem=2GB
#HF/cc-pVTZ nosymm scf=tight opt=ModRedundant

Mol

0 1
O	 1.216069	 1.304886	 0.000821
C	 1.121787	 0.124983	 0.000110
C	 -0.170912	 -0.649867	 -0.000147
O	 2.167739	 -0.685178	 -0.000678
C	 -1.413045	 0.229353	 0.001137
H	 -0.152877	 -1.303435	 -0.866175
H	 -0.152278	 -1.305116	 0.864586
C	 -1.439133	 1.196805	 1.180825
H	 -2.296472	 -0.398876	 0.021789
H	 -1.460530	 0.783595	 -0.929511
C	 -2.681020	 2.081370	 1.193132
H	 -1.387959	 0.635827	 2.110301
H	 -0.551499	 1.823438	 1.154882
H	 -3.584889	 1.484757	 1.253622
H	 -2.672717	 2.757086	 2.040490
H	 -2.742316	 2.681072	 0.291366
C	 3.449556	 -0.089977	 -0.000570
H	 3.585694	 0.522473	 -0.879546
H	 4.155805	 -0.904274	 -0.001389
H	 3.586173	 0.521118	 0.879272

9 5 3 6 F
