%nprocshared=4
%mem=2GB
#HF/cc-pVTZ nosymm scf=tight opt=ModRedundant

Mol

0 1
O	 -2.817697	 1.304178	 0.001046
C	 -2.664672	 0.129869	 0.003507
C	 -3.797908	 -0.860100	 -0.001145
O	 -1.481217	 -0.452708	 0.001092
H	 -4.408836	 -0.679689	 -0.875387
H	 -3.443486	 -1.878443	 -0.002770
H	 -4.412123	 -0.683688	 0.871605
C	 -0.332055	 0.384012	 -0.000250
C	 0.892252	 -0.506059	 -0.000295
H	 -0.360822	 1.020205	 -0.874146
H	 -0.359817	 1.021310	 0.872861
C	 1.050976	 -1.264862	 1.314005
H	 1.770687	 0.103913	 -0.184564
H	 0.818212	 -1.206316	 -0.826021
C	 2.279539	 -2.169974	 1.337034
H	 1.113947	 -0.556485	 2.136328
H	 0.162455	 -1.864314	 1.496112
C	 2.437863	 -2.929323	 2.649791
H	 3.168257	 -1.571815	 1.156917
H	 2.217655	 -2.878398	 0.515819
H	 2.536838	 -2.246901	 3.487257
H	 3.317854	 -3.561658	 2.633213
H	 1.578707	 -3.563366	 2.841348

13 9 8 10 F
