%nprocshared=4
%mem=2GB
#HF/cc-pVTZ nosymm scf=tight opt=ModRedundant

Mol

0 1
H	 1.429100	 -2.016798	 0.793475
C	 0.504319	 -1.489036	 0.954968
O	 0.462329	 -0.453336	 -0.000137
H	 0.492918	 -1.091457	 1.961953
H	 -0.323722	 -2.174152	 0.823811
C	 -0.590565	 0.341382	 0.000062
O	 -1.693898	 -0.053880	 0.000252
H	 -0.340426	 1.403822	 0.000200

2 3 6 7 F
