%nprocshared=4
%mem=2GB
#HF/cc-pVTZ nosymm scf=tight opt=ModRedundant

Mol

0 1
O	 2.868453	 1.353349	 -0.000734
C	 2.841259	 0.166180	 -0.000295
C	 1.542794	 -0.614730	 -0.000853
C	 4.113372	 -0.651103	 0.000743
C	 0.288398	 0.247429	 0.000314
H	 1.557171	 -1.273139	 -0.866508
H	 1.557484	 -1.274998	 0.863344
C	 -0.988803	 -0.574933	 -0.146626
H	 0.354446	 0.972197	 -0.803093
H	 0.252944	 0.822170	 0.918763
C	 -2.254137	 0.277861	 -0.147195
H	 -0.945151	 -1.150532	 -1.068610
H	 -1.047324	 -1.300942	 0.661303
C	 -3.535797	 -0.537297	 -0.294171
H	 -2.196683	 1.003733	 -0.954612
H	 -2.299076	 0.853020	 0.774380
C	 -4.795868	 0.321779	 -0.293966
H	 -3.492274	 -1.111631	 -1.215683
H	 -3.594702	 -1.262267	 0.513212
H	 -4.783361	 1.034788	 -1.111585
H	 -5.686620	 -0.286794	 -0.399904
H	 -4.886684	 0.882827	 0.630167
H	 4.145311	 -1.294584	 -0.871587
H	 4.970080	 0.004978	 -0.000091
H	 4.145223	 -1.291980	 0.874988

9 5 3 6 F
