%nprocshared=4
%mem=2GB
#HF/6-31G* nosymm scf=tight opt=ModRedundant

Mol

0 1
H	 -2.172150	 0.880146	 0.502514
C	 -2.018062	 -0.000025	 -0.114509
O	 -0.774054	 0.001095	 -0.743181
H	 -2.760490	 0.003458	 -0.901350
H	 -2.173624	 -0.884374	 0.496163
C	 -0.697410	 -0.174801	 -2.146647
C	 0.800199	 -0.107902	 -2.437685
C	 -1.249990	 -1.541663	 -2.563219
C	 -1.424240	 0.953299	 -2.885719
H	 1.321147	 -0.888608	 -1.894967
H	 1.200104	 0.847992	 -2.118756
H	 0.998360	 -0.230639	 -3.497557
H	 -0.780264	 -2.329094	 -1.983271
H	 -1.048049	 -1.724606	 -3.613625
H	 -2.323515	 -1.608986	 -2.423335
H	 -1.076682	 1.918505	 -2.532685
H	 -1.230878	 0.890031	 -3.951618
H	 -2.499202	 0.906540	 -2.748232

6 3 2 5 F
