%nprocshared=1
%mem=2GB
#HF/6-31G* nosymm scf=tight 

Mol

0 1
O	 -0.906629	 1.972107	 1.994523
C	 -0.764601	 1.982761	 0.809554
C	 0.477768	 1.388962	 0.169065
C	 -1.819685	 2.553750	 -0.111393
C	 0.379448	 -0.143569	 0.099626
H	 1.328848	 1.669630	 0.779960
H	 0.626745	 1.796990	 -0.826599
C	 1.631333	 -0.777471	 -0.511575
H	 0.213439	 -0.517565	 1.103595
H	 -0.490598	 -0.428566	 -0.489902
C	 2.915987	 -0.544314	 0.291766
H	 1.766672	 -0.399098	 -1.523130
H	 1.471257	 -1.849544	 -0.605828
C	 3.373361	 0.914346	 0.347591
H	 3.708709	 -1.142521	 -0.150311
H	 2.780642	 -0.921148	 1.303579
H	 3.506512	 1.320010	 -0.651625
H	 4.322697	 0.999599	 0.867103
H	 2.660624	 1.545032	 0.868198
H	 -1.430389	 3.438163	 -0.608913
H	 -2.701235	 2.819440	 0.455232
H	 -2.080709	 1.839216	 -0.886707

6 3 2 1 F
6 3 5 8 F
12 8 11 15 F
