%nprocshared=4
%mem=2GB
#HF/cc-pVTZ nosymm scf=tight opt=ModRedundant

Mol

0 1
H	 7.564633	 -7.026033	 -2.602040
O	 7.345140	 -6.523530	 -1.839713
C	 7.822866	 -5.210440	 -1.969503
C	 7.037574	 -4.375478	 -2.969923
H	 7.741338	 -4.767887	 -0.985898
H	 8.878528	 -5.215129	 -2.234091
C	 5.521664	 -4.467137	 -2.810344
H	 7.353054	 -3.340416	 -2.878948
H	 7.314524	 -4.703348	 -3.969021
C	 4.972358	 -5.848118	 -3.165295
H	 5.049162	 -3.718291	 -3.437220
H	 5.252734	 -4.229811	 -1.782414
C	 3.467074	 -6.019095	 -2.952830
H	 5.216547	 -6.074088	 -4.200446
H	 5.490264	 -6.590340	 -2.564171
C	 3.009841	 -5.968591	 -1.496077
H	 2.953974	 -5.235255	 -3.503149
H	 3.146638	 -6.958451	 -3.397899
C	 3.483501	 -7.168232	 -0.679428
H	 1.923515	 -5.920622	 -1.463460
H	 3.368846	 -5.059554	 -1.023033
C	 4.787405	 -7.768073	 -1.195101
H	 3.610487	 -6.868801	 0.357294
H	 2.710250	 -7.931867	 -0.682378
H	 5.589371	 -7.037552	 -1.174452
H	 5.096164	 -8.614511	 -0.592342
H	 4.682460	 -8.112344	 -2.218729

20 16 19 22 F
