%nprocshared=4
%mem=2GB
#HF/cc-pVTZ nosymm scf=tight opt=ModRedundant

Mol

0 1
O	 -0.694481	 1.313155	 -0.204815
C	 -0.862519	 0.151932	 -0.046791
C	 -2.171428	 -0.477048	 0.339095
O	 0.085519	 -0.757083	 -0.192238
H	 -2.467997	 -1.191667	 -0.417688
H	 -2.923379	 0.287970	 0.444097
H	 -2.053854	 -1.015120	 1.270901
C	 1.392036	 -0.330828	 -0.560749
C	 1.620800	 -0.452906	 -2.052949
H	 2.121371	 -0.901664	 -0.007547
H	 1.441710	 0.701150	 -0.247214
H	 2.598749	 -0.057850	 -2.303944
H	 1.581424	 -1.487022	 -2.366697
H	 0.875228	 0.109800	 -2.601654

10 8 4 2 F
