%nprocshared=1
%mem=2GB
#HF/6-31G* nosymm scf=tight 

Mol

0 1
O	 -0.988096	 -1.408613	 0.050699
C	 -0.676749	 -0.249230	 -0.009274
C	 -1.746085	 0.827156	 -0.009539
N	 0.623947	 0.147590	 -0.102813
H	 -1.701500	 1.431508	 -0.908902
H	 -2.703425	 0.330732	 0.036390
H	 -1.647323	 1.487769	 0.845106
C	 1.480421	 -0.000324	 1.057553
C	 1.133318	 1.015453	 -1.141852
H	 2.471807	 -0.302628	 0.738518
H	 1.071433	 -0.750495	 1.711704
H	 1.567462	 0.935025	 1.606159
H	 2.167020	 0.759640	 -1.341997
H	 0.584119	 0.897446	 -2.062389
H	 1.097726	 2.063380	 -0.849629

2 4 8 10 F
