%nprocshared=4
%mem=2GB
#HF/cc-pVTZ nosymm scf=tight opt=ModRedundant

Mol

0 1
H	 -3.258660	 -0.290394	 1.471450
C	 -3.307964	 -0.275695	 0.374072
C	 -2.653809	 0.914422	 -0.273689
O	 -3.855140	 -1.148880	 -0.205112
C	 -1.216901	 1.136108	 0.207794
H	 -2.700131	 0.790676	 -1.347875
H	 -3.256452	 1.781007	 -0.010713
C	 -0.247837	 0.040196	 -0.230469
H	 -0.872882	 2.093195	 -0.169002
H	 -1.209325	 1.218376	 1.291938
C	 1.181757	 0.280428	 0.247371
H	 -0.259600	 -0.030819	 -1.314870
H	 -0.591284	 -0.923375	 0.136958
C	 2.151032	 -0.811012	 -0.202643
H	 1.515939	 1.247397	 -0.115449
H	 1.191514	 0.341223	 1.333422
C	 3.580021	 -0.656538	 0.320835
H	 2.170545	 -0.847575	 -1.289412
H	 1.766632	 -1.772905	 0.124928
C	 3.769422	 0.465282	 1.339036
H	 4.235728	 -0.472543	 -0.524497
H	 3.905888	 -1.597484	 0.756425
H	 3.445391	 1.418275	 0.933075
H	 3.210185	 0.286418	 2.249501
H	 4.813558	 0.562507	 1.613431

20 17 14 18 F
