%nprocshared=4
%mem=2GB
#HF/cc-pVTZ nosymm scf=tight opt=ModRedundant

Mol

0 1
H	 2.614283	 2.028610	 0.296620
O	 3.358864	 1.662087	 -0.142800
C	 3.565468	 0.338079	 0.273842
C	 2.533667	 -0.637565	 -0.272227
H	 4.548038	 0.064914	 -0.086598
H	 3.593945	 0.282242	 1.360360
C	 1.114816	 -0.402372	 0.240993
H	 2.544552	 -0.580764	 -1.356576
H	 2.850574	 -1.642962	 -0.005497
C	 0.479662	 -1.664710	 0.822302
H	 0.497988	 -0.027676	 -0.569025
H	 1.132193	 0.372577	 1.005479
C	 -0.915453	 -1.470275	 1.419047
H	 0.436605	 -2.430130	 0.051260
H	 1.133413	 -2.054102	 1.597835
C	 -2.008451	 -1.125511	 0.408979
H	 -1.196705	 -2.385099	 1.933363
H	 -0.874194	 -0.696433	 2.182343
C	 -3.397018	 -1.039762	 1.037421
H	 -2.018188	 -1.876518	 -0.378016
H	 -1.784680	 -0.179931	 -0.075590
C	 -4.490129	 -0.692017	 0.032395
H	 -3.634334	 -1.987109	 1.513649
H	 -3.386784	 -0.295854	 1.829607
H	 -4.547485	 -1.435054	 -0.756175
H	 -5.461889	 -0.641882	 0.510176
H	 -4.301701	 0.269149	 -0.434517

10 7 4 8 F
