%nprocshared=1
%mem=2GB
#HF/6-31G* nosymm scf=tight opt=ModRedundant

Mol

0 1
H	 2.870979	 -2.852164	 -3.110947
C	 2.838292	 -1.767376	 -3.084705
C	 1.568660	 -1.269541	 -2.395233
H	 3.725740	 -1.422281	 -2.562510
H	 2.896510	 -1.409738	 -4.109159
C	 1.487416	 0.257843	 -2.347142
H	 1.530218	 -1.665814	 -1.385733
H	 0.698004	 -1.659708	 -2.920039
C	 0.218090	 0.786063	 -1.678517
H	 2.351363	 0.651701	 -1.823582
H	 1.526877	 0.647821	 -3.361736
C	 0.169600	 0.576866	 -0.172154
H	 0.134193	 1.858885	 -1.845204
H	 -0.669725	 0.348358	 -2.129490
C	 -1.181045	 0.701995	 0.511084
O	 1.155796	 0.340983	 0.458863
C	 -2.285934	 -0.139295	 -0.145128
H	 -1.449051	 1.751551	 0.493206
H	 -1.071135	 0.403303	 1.551943
C	 -3.651768	 0.085446	 0.506485
H	 -2.346596	 0.110469	 -1.202272
H	 -2.034737	 -1.195320	 -0.088721
C	 -4.759797	 -0.746382	 -0.137905
H	 -3.908762	 1.140117	 0.445781
H	 -3.588286	 -0.154158	 1.565709
H	 -4.868882	 -0.505166	 -1.191300
H	 -4.548009	 -1.809175	 -0.062213
H	 -5.715422	 -0.564821	 0.343442

16 12 15 17 F
