%nprocshared=4
%mem=2GB
#HF/cc-pVTZ nosymm scf=tight opt=ModRedundant

Mol

0 1
O	 3.219313	 0.959291	 -0.614106
C	 2.698710	 0.058177	 -0.050237
C	 1.246364	 -0.005813	 0.348416
O	 3.344101	 -1.038700	 0.312317
C	 0.453207	 1.232821	 -0.049003
H	 0.839270	 -0.907818	 -0.092281
H	 1.216683	 -0.160521	 1.422434
C	 -0.998367	 1.217982	 0.432195
H	 0.481498	 1.345443	 -1.127236
H	 0.951413	 2.105557	 0.354893
C	 -1.882951	 0.151251	 -0.211235
H	 -1.429490	 2.193659	 0.228843
H	 -1.019755	 1.099323	 1.513279
C	 -2.415142	 0.564202	 -1.580918
H	 -1.314344	 -0.770527	 -0.310651
H	 -2.724191	 -0.077681	 0.436408
C	 -3.424792	 1.706934	 -1.521379
H	 -2.876189	 -0.295664	 -2.060925
H	 -1.582381	 0.855866	 -2.216769
C	 -3.953159	 2.112518	 -2.893278
H	 -4.257598	 1.416896	 -0.886531
H	 -2.964646	 2.568094	 -1.044385
H	 -4.666411	 2.925038	 -2.815393
H	 -4.450813	 1.281619	 -3.382212
H	 -3.147503	 2.440928	 -3.541562
C	 4.720529	 -1.114346	 0.001449
H	 4.874321	 -1.055557	 -1.065852
H	 5.057824	 -2.067950	 0.373977
H	 5.264321	 -0.313596	 0.480350

15 11 8 5 F
