%nprocshared=4
%mem=2GB
#HF/cc-pVTZ nosymm scf=tight opt=ModRedundant

Mol

0 1
H	 -1.835082	 1.385983	 0.000069
C	 -1.300516	 0.441153	 -0.000028
O	 -0.006604	 0.654344	 -0.000106
O	 -1.828920	 -0.612308	 0.000113
C	 0.445080	 1.987670	 -0.219305
C	 1.954573	 1.976365	 -0.174544
H	 0.027901	 2.627820	 0.544977
H	 0.076702	 2.328303	 -1.176504
H	 2.309127	 1.629677	 0.787781
H	 2.331348	 2.978901	 -0.338303
H	 2.358177	 1.328629	 -0.942341

5 3 2 4 F
