%nprocshared=1
%mem=2GB
#HF/6-31G* nosymm scf=tight 

Mol

0 1
O	 3.225979	 0.970355	 -0.599647
C	 2.701189	 0.057885	 -0.047330
C	 1.245376	 -0.013843	 0.345420
O	 3.347903	 -1.046386	 0.304773
C	 0.455112	 1.231400	 -0.050772
H	 0.838542	 -0.913825	 -0.103701
H	 1.208210	 -0.175333	 1.419774
C	 -0.998893	 1.219485	 0.433193
H	 0.482531	 1.345121	 -1.130325
H	 0.957290	 2.103070	 0.354729
C	 -1.797369	 2.485364	 0.109005
H	 -0.993770	 1.078687	 1.511559
H	 -1.511908	 0.352912	 0.018611
C	 -3.205473	 2.470140	 0.707344
H	 -1.257490	 3.354225	 0.482406
H	 -1.875074	 2.613732	 -0.968239
C	 -4.014469	 3.727927	 0.385425
H	 -3.136052	 2.355290	 1.787726
H	 -3.742232	 1.595700	 0.342729
C	 -5.418027	 3.706475	 0.989795
H	 -3.479044	 4.602772	 0.748204
H	 -4.088661	 3.842061	 -0.694042
H	 -5.966350	 4.610716	 0.744239
H	 -5.377436	 3.628165	 2.072577
H	 -5.991445	 2.861226	 0.619634
C	 4.728119	 -1.109107	 -0.004993
H	 4.882018	 -1.033965	 -1.071845
H	 5.068212	 -2.067527	 0.355250
H	 5.265056	 -0.311663	 0.488280

21 17 14 11 F
17 14 11 15 F
15 11 8 5 F
6 3 5 9 F
2 4 26 27 F
1 2 4 26 F
6 3 2 1 F
