%nprocshared=1
%mem=2GB
#HF/6-31G* nosymm scf=tight opt=ModRedundant

Mol

0 1
H	 1.418251	 -5.494215	 -0.715462
O	 2.293420	 -5.274866	 -1.000132
C	 2.234539	 -4.271377	 -1.981761
C	 1.871839	 -2.901230	 -1.419736
H	 3.221379	 -4.235040	 -2.425046
H	 1.536249	 -4.550018	 -2.770132
C	 0.470195	 -2.830303	 -0.808809
H	 2.610737	 -2.629249	 -0.670455
H	 1.952894	 -2.172392	 -2.224468
C	 0.115918	 -1.429151	 -0.302766
H	 0.401564	 -3.540182	 0.010780
H	 -0.264981	 -3.137865	 -1.552626
C	 -1.309753	 -1.282496	 0.241564
H	 0.827087	 -1.136297	 0.467508
H	 0.246773	 -0.722761	 -1.119828
C	 -2.037799	 -0.007733	 -0.193645
H	 -1.890610	 -2.142323	 -0.085726
H	 -1.285946	 -1.330893	 1.329189
C	 -3.489788	 0.042957	 0.286558
H	 -2.017067	 0.064384	 -1.280144
H	 -1.513726	 0.868678	 0.179924
C	 -4.216917	 1.317354	 -0.141063
H	 -4.025645	 -0.823308	 -0.095450
H	 -3.513059	 -0.038752	 1.371301
H	 -4.239342	 1.411634	 -1.223113
H	 -5.243387	 1.322503	 0.212445
H	 -3.726170	 2.201406	 0.256408

14 10 13 16 F
