%nprocshared=4
%mem=2GB
#HF/cc-pVTZ nosymm scf=tight opt=ModRedundant

Mol

0 1
H	 2.141569	 -1.072449	 -0.897762
C	 1.362361	 -0.351737	 -1.080083
O	 0.462329	 -0.453336	 -0.000137
H	 0.874152	 -0.585377	 -2.017784
H	 1.798418	 0.637885	 -1.132425
C	 -0.590565	 0.341382	 0.000062
O	 -1.693898	 -0.053880	 0.000252
H	 -0.340426	 1.403822	 0.000200

2 3 6 7 F
