%nprocshared=1
%mem=2GB
#HF/6-31G* nosymm scf=tight 

Mol

0 1
O	 0.074228	 1.262779	 -0.000085
C	 0.028650	 0.075053	 -0.000277
C	 -1.233602	 -0.752807	 0.000328
O	 1.109162	 -0.694619	 -0.000298
C	 -2.501530	 0.091881	 0.000126
H	 -1.193807	 -1.406641	 -0.865785
H	 -1.193516	 -1.405779	 0.867015
H	 -2.545121	 0.729328	 -0.874513
H	 -3.377167	 -0.548497	 0.000561
H	 -2.544818	 0.730135	 0.874258
C	 2.266485	 -0.177481	 -0.631772
H	 2.073188	 0.019380	 -1.676423
H	 3.023959	 -0.938683	 -0.528489
H	 2.585431	 0.736123	 -0.151070

4 2 3 6 F
