%nprocshared=1
%mem=2GB
#HF/6-31G* nosymm scf=tight 

Mol

0 1
H	 -3.420663	 1.227371	 -1.044276
O	 -3.452007	 0.283848	 -0.965577
C	 -3.181085	 -0.079926	 0.364119
C	 -1.765924	 0.277073	 0.805136
H	 -3.327791	 -1.152017	 0.410903
H	 -3.905698	 0.375695	 1.036898
C	 -0.677594	 -0.417312	 -0.014550
H	 -1.637766	 1.358238	 0.744969
H	 -1.659588	 0.017670	 1.857098
C	 -0.198708	 0.416275	 -1.204920
H	 -1.050978	 -1.374931	 -0.364206
H	 0.168090	 -0.638276	 0.634592
C	 0.894795	 -0.282788	 -2.017106
H	 -1.049276	 0.641698	 -1.843777
H	 0.177537	 1.374288	 -0.848190
C	 1.470117	 0.549820	 -3.168594
H	 0.505767	 -1.219999	 -2.412059
H	 1.708066	 -0.551790	 -1.346251
C	 0.477593	 0.851414	 -4.293023
H	 2.319648	 0.016341	 -3.588102
H	 1.864325	 1.484458	 -2.774571
H	 0.057120	 -0.065156	 -4.698289
H	 0.965947	 1.377956	 -5.107333
H	 -0.345617	 1.471133	 -3.953263

20 16 13 17 F
17 13 10 7 F
13 10 7 11 F
1 2 3 5 F
7 4 3 2 F
