%nprocshared=1
%mem=2GB
#HF/6-31G* nosymm scf=tight 

Mol

0 1
H	 2.949166	 -2.855535	 2.583282
O	 3.696704	 -2.793547	 2.006727
C	 3.374538	 -3.340230	 0.753172
C	 2.435188	 -2.459456	 -0.063275
H	 4.315786	 -3.453366	 0.230747
H	 2.948058	 -4.335857	 0.869879
C	 1.052623	 -2.272863	 0.566460
H	 2.906253	 -1.490007	 -0.203396
H	 2.325690	 -2.904694	 -1.050767
C	 0.115918	 -1.429151	 -0.302766
H	 1.164113	 -1.804291	 1.540306
H	 0.598207	 -3.248773	 0.738057
C	 -1.309753	 -1.282496	 0.241564
H	 0.550862	 -0.441253	 -0.443222
H	 0.062163	 -1.879553	 -1.291679
C	 -2.037799	 -0.007733	 -0.193645
H	 -1.890610	 -2.142323	 -0.085726
H	 -1.285946	 -1.330893	 1.329189
C	 -3.489788	 0.042957	 0.286558
H	 -2.017067	 0.064384	 -1.280144
H	 -1.513726	 0.868678	 0.179924
C	 -4.216917	 1.317354	 -0.141063
H	 -4.025645	 -0.823308	 -0.095450
H	 -3.513059	 -0.038752	 1.371301
H	 -4.239342	 1.411634	 -1.223113
H	 -5.243387	 1.322503	 0.212445
H	 -3.726170	 2.201406	 0.256408

14 10 7 4 F
10 7 4 8 F
8 4 3 2 F
10 13 16 20 F
20 16 19 22 F
4 3 2 1 F
