%nprocshared=4
%mem=2GB
#HF/cc-pVTZ nosymm scf=tight opt=ModRedundant

Mol

0 1
O	 1.216069	 1.304886	 0.000821
C	 1.121787	 0.124983	 0.000110
C	 -0.170912	 -0.649867	 -0.000147
O	 2.167739	 -0.685178	 -0.000678
C	 -1.413045	 0.229353	 0.001137
H	 -0.152877	 -1.303435	 -0.866175
H	 -0.152278	 -1.305116	 0.864586
C	 -2.541565	 -0.357721	 -0.841535
H	 -1.154154	 1.215522	 -0.367627
H	 -1.751447	 0.369747	 1.021587
C	 -3.790692	 0.516645	 -0.849063
H	 -2.195470	 -0.499198	 -1.862046
H	 -2.796461	 -1.345802	 -0.467420
H	 -3.575842	 1.501195	 -1.250419
H	 -4.574211	 0.075823	 -1.454414
H	 -4.181277	 0.648355	 0.154270
C	 3.449556	 -0.089977	 -0.000570
H	 3.585694	 0.522473	 -0.879546
H	 4.155805	 -0.904274	 -0.001389
H	 3.586173	 0.521118	 0.879272

9 5 3 6 F
