%nprocshared=1
%mem=2GB
#HF/6-31G* nosymm scf=tight 

Mol

0 1
H	 3.469408	 4.682644	 -1.656350
C	 2.523650	 4.491028	 -2.153690
C	 1.821682	 3.272776	 -1.555127
H	 1.910719	 5.381856	 -2.053279
H	 2.728988	 4.347510	 -3.211063
C	 0.486503	 2.970124	 -2.238877
H	 1.656005	 3.439319	 -0.495686
H	 2.473767	 2.404789	 -1.639244
C	 -0.231140	 1.744611	 -1.672864
H	 -0.167739	 3.830815	 -2.156275
H	 0.660112	 2.804797	 -3.299805
C	 -0.808040	 1.944246	 -0.279101
H	 -1.066245	 1.477098	 -2.318470
H	 0.425655	 0.877565	 -1.667637
C	 -1.181045	 0.701995	 0.511084
O	 -0.981224	 3.034749	 0.176107
C	 -2.285934	 -0.139295	 -0.145128
H	 -1.496424	 1.033966	 1.492942
H	 -0.289154	 0.090756	 0.635989
C	 -3.651768	 0.085446	 0.506485
H	 -2.346596	 0.110469	 -1.202272
H	 -2.034737	 -1.195320	 -0.088721
C	 -4.759797	 -0.746382	 -0.137905
H	 -3.908762	 1.140117	 0.445781
H	 -3.588286	 -0.154158	 1.565709
H	 -4.868882	 -0.505166	 -1.191300
H	 -4.548009	 -1.809175	 -0.062213
H	 -5.715422	 -0.564821	 0.343442

10 6 3 2 F
16 12 15 17 F
