%nprocshared=1
%mem=2GB
#HF/6-31G* nosymm scf=tight opt=ModRedundant

Mol

0 1
O	 -1.717695	 2.163257	 0.135016
C	 -1.785172	 1.066274	 -0.330290
C	 -0.571238	 0.416347	 -0.970809
C	 -3.063115	 0.259095	 -0.278351
C	 0.379448	 -0.143569	 0.099626
H	 -0.057607	 1.176890	 -1.548789
H	 -0.875059	 -0.376164	 -1.648782
C	 1.631333	 -0.777471	 -0.511575
H	 0.649131	 0.665568	 0.768919
H	 -0.142099	 -0.887497	 0.699882
C	 2.915987	 -0.544314	 0.291766
H	 1.766672	 -0.399098	 -1.523130
H	 1.471257	 -1.849544	 -0.605828
C	 3.373361	 0.914346	 0.347591
H	 3.708709	 -1.142521	 -0.150311
H	 2.780642	 -0.921148	 1.303579
H	 3.506512	 1.320010	 -0.651625
H	 4.322697	 0.999599	 0.867103
H	 2.660624	 1.545032	 0.868198
H	 -3.444323	 0.113405	 -1.285684
H	 -3.804230	 0.776839	 0.314502
H	 -2.878689	 -0.726324	 0.139669

3 5 8 12 F
