%nprocshared=1
%mem=2GB
#HF/6-31G* nosymm scf=tight 

Mol

0 1
H	 -2.420312	 -0.621442	 -1.194283
O	 -2.338207	 -0.306295	 -0.305278
C	 -1.181144	 0.477469	 -0.187348
C	 0.069345	 -0.383836	 -0.177301
H	 -1.111943	 1.213075	 -0.983873
H	 -1.258296	 1.012497	 0.748730
O	 1.171513	 0.459272	 -0.058250
H	 0.130127	 -0.966738	 -1.098448
H	 0.021316	 -1.087940	 0.651260
C	 2.397842	 -0.198080	 -0.002151
H	 2.508049	 -0.905315	 -0.822092
H	 3.173794	 0.550865	 -0.078850
H	 2.517602	 -0.735921	 0.936026

8 4 3 5 F
1 2 3 5 F
10 7 4 8 F
