%nprocshared=4
%mem=2GB
#HF/6-31G* nosymm scf=tight opt=ModRedundant

Mol

0 1
H	 2.591676	 2.013956	 0.335017
O	 3.341076	 1.666752	 -0.126416
C	 3.569581	 0.339145	 0.272707
C	 2.539767	 -0.640285	 -0.279495
H	 4.553106	 0.084646	 -0.100901
H	 3.608576	 0.269204	 1.359154
C	 1.115811	 -0.397273	 0.226630
H	 2.556196	 -0.582511	 -1.364741
H	 2.852081	 -1.648031	 -0.010655
C	 1.017276	 0.816588	 1.154881
H	 0.766670	 -1.283248	 0.749616
H	 0.449238	 -0.251761	 -0.623574
C	 -0.402710	 1.155860	 1.622723
H	 1.653466	 0.655707	 2.023343
H	 1.425138	 1.682196	 0.637125
C	 -1.047086	 0.110246	 2.537026
H	 -0.370302	 2.106069	 2.151748
H	 -1.038825	 1.316102	 0.753517
C	 -2.418358	 0.541206	 3.061739
H	 -0.386171	 -0.085448	 3.380237
H	 -1.154357	 -0.833909	 2.008473
C	 -3.066615	 -0.503483	 3.969512
H	 -2.317538	 1.478239	 3.605147
H	 -3.077195	 0.746556	 2.220520
H	 -2.446573	 -0.707078	 4.838029
H	 -4.035505	 -0.168118	 4.326467
H	 -3.215197	 -1.442461	 3.443577

10 7 4 8 F
