%nprocshared=4
%mem=2GB
#HF/6-31G* nosymm scf=tight opt=ModRedundant

Mol

0 1
H	 1.216160	 -0.987353	 -0.618767
O	 1.029738	 -0.327089	 -1.272336
C	 0.524085	 0.811613	 -0.638587
C	 -0.793441	 0.596080	 0.058728
H	 0.408079	 1.561955	 -1.412365
H	 1.244855	 1.209633	 0.074922
C	 -1.530462	 -0.493172	 -0.025500
H	 -1.128864	 1.424162	 0.663918
H	 -1.092586	 -1.461565	 -0.186463
H	 -2.602122	 -0.450675	 0.050101

3 4 7 9 F
