%nprocshared=4
%mem=2GB
#HF/cc-pVTZ nosymm scf=tight opt=ModRedundant

Mol

0 1
H	 1.394983	 3.138174	 -4.552441
C	 1.369986	 2.574372	 -3.639382
C	 0.608959	 3.020238	 -2.573698
C	 2.098421	 1.404833	 -3.531942
H	 0.043812	 3.928111	 -2.657815
C	 0.577339	 2.295209	 -1.400741
H	 2.688288	 1.059916	 -4.358962
C	 2.067785	 0.677741	 -2.358104
H	 -0.006463	 2.625848	 -0.565929
C	 1.306469	 1.121471	 -1.288519
H	 2.630755	 -0.228413	 -2.271612
C	 1.238974	 0.374429	 0.000004
O	 1.968286	 -0.725612	 -0.000027
O	 0.598287	 0.726045	 0.933313
C	 3.373556	 -0.568203	 0.000011
H	 3.695416	 -0.031588	 -0.879663
H	 3.782700	 -1.565294	 -0.000152
H	 3.695405	 -0.031851	 0.879862

10 12 13 15 F
