%nprocshared=4
%mem=2GB
#HF/cc-pVTZ nosymm scf=tight opt=ModRedundant

Mol

0 1
H	 3.217244	 -0.660792	 -1.174103
C	 2.503873	 -0.858668	 -0.384656
C	 1.322304	 0.099773	 -0.484271
H	 2.183591	 -1.890223	 -0.477847
H	 3.019526	 -0.751598	 0.562962
C	 0.308557	 -0.162619	 0.622645
H	 0.831671	 -0.011495	 -1.443245
H	 1.665849	 1.124172	 -0.409968
N	 -1.069352	 -0.004081	 0.085342
H	 0.371632	 -1.172932	 0.991288
H	 0.400391	 0.548875	 1.426218
O	 -1.584901	 -0.965470	 -0.377818
O	 -1.548033	 1.079343	 0.130056

7 3 6 9 F
