%nprocshared=1
%mem=2GB
#HF/6-31G* nosymm scf=tight opt=ModRedundant

Mol

0 1
O	 1.617080	 1.024438	 -0.759799
C	 1.705091	 0.115954	 0.001797
C	 0.704308	 -0.228310	 1.077800
O	 2.721346	 -0.737485	 -0.000216
C	 -0.488237	 0.722179	 1.123085
H	 0.384921	 -1.252990	 0.908279
H	 1.236481	 -0.237771	 2.025123
C	 -1.485893	 0.349782	 2.220840
H	 -0.984157	 0.719909	 0.157556
H	 -0.131916	 1.735964	 1.276659
C	 -2.689092	 1.292480	 2.279934
H	 -1.836756	 -0.669075	 2.063292
H	 -0.982017	 0.351498	 3.186235
C	 -3.684957	 0.920610	 3.377757
H	 -3.195056	 1.289945	 1.317056
H	 -2.340280	 2.310535	 2.438148
H	 -4.078524	 -0.080794	 3.227725
H	 -4.525851	 1.606955	 3.394426
H	 -3.216781	 0.947467	 4.357757
C	 4.024888	 -0.184556	 -0.001949
H	 4.179030	 0.422472	 -0.882452
H	 4.701782	 -1.024608	 -0.003642
H	 4.181981	 0.421185	 0.878906

1 2 4 20 F
