%nprocshared=4
%mem=2GB
#HF/cc-pVTZ nosymm scf=tight opt=ModRedundant

Mol

0 1
O	 -7.297929	 1.568984	 0.614106
C	 -6.864296	 1.633990	 1.717666
C	 -5.413160	 1.337244	 2.037008
C	 -7.740977	 2.021081	 2.887202
C	 -4.568572	 0.949993	 0.831380
H	 -5.000730	 2.214203	 2.530882
H	 -5.397432	 0.550117	 2.787467
C	 -3.116401	 0.660664	 1.200973
H	 -4.610279	 1.746701	 0.097465
H	 -5.007454	 0.081188	 0.354208
C	 -2.258482	 0.271340	 0.000669
H	 -2.683476	 1.535438	 1.681203
H	 -3.082435	 -0.137925	 1.938784
C	 -2.305585	 1.289336	 -1.135201
H	 -2.582688	 -0.697036	 -0.372496
H	 -1.228300	 0.142027	 0.323360
C	 -3.572900	 2.137654	 -1.127623
H	 -1.437227	 1.939525	 -1.070796
H	 -2.226298	 0.769809	 -2.086371
H	 -3.663669	 2.697063	 -0.202494
H	 -3.574663	 2.849112	 -1.945453
H	 -4.458537	 1.518747	 -1.225834
H	 -7.348144	 2.908216	 3.371684
H	 -8.746661	 2.209406	 2.544384
H	 -7.749857	 1.227661	 3.626423

15 11 14 18 F
