%nprocshared=4
%mem=2GB
#HF/cc-pVTZ nosymm scf=tight opt=ModRedundant

Mol

0 1
H	 -2.592189	 0.153455	 -0.633857
C	 -1.605056	 -0.289273	 -0.656897
C	 -0.600949	 0.658697	 -0.000002
H	 -1.338760	 -0.480257	 -1.687769
H	 -1.641408	 -1.235885	 -0.134699
C	 0.763408	 0.112229	 -0.000006
H	 -0.574645	 1.609071	 -0.516752
H	 -0.875589	 0.857700	 1.027571
N	 1.806008	 -0.317179	 0.000007

7 3 6 9 F
