%nprocshared=4
%mem=2GB
#HF/cc-pVTZ nosymm scf=tight opt=ModRedundant

Mol

0 1
H	 -3.436473	 1.252944	 -1.023892
O	 -3.458596	 0.315260	 -0.960865
C	 -3.176635	 -0.080824	 0.355601
C	 -1.763371	 0.265266	 0.799691
H	 -3.321825	 -1.153438	 0.379502
H	 -3.895468	 0.357385	 1.043382
C	 -0.673390	 -0.426948	 -0.013392
H	 -1.631049	 1.344913	 0.747560
H	 -1.664587	 -0.001624	 1.849167
C	 0.737842	 -0.043159	 0.423759
H	 -0.806103	 -0.190518	 -1.063345
H	 -0.797221	 -1.503753	 0.074146
C	 0.954601	 1.467954	 0.474748
H	 0.935409	 -0.479192	 1.398301
H	 1.460220	 -0.484276	 -0.259938
C	 2.377556	 1.902593	 0.829906
H	 0.258836	 1.905971	 1.186719
H	 0.698723	 1.887702	 -0.494251
C	 2.816494	 1.552048	 2.249623
H	 2.450033	 2.978054	 0.699884
H	 3.073920	 1.464870	 0.119346
H	 2.134718	 1.971831	 2.982454
H	 3.804770	 1.947444	 2.455081
H	 2.855507	 0.481329	 2.409759

13 10 7 11 F
