%nprocshared=1
%mem=2GB
#HF/6-31G* nosymm scf=tight 

Mol

0 1
H	 -2.770136	 0.391341	 0.716789
C	 -2.370475	 1.364908	 0.440060
O	 -0.987993	 1.323701	 0.290454
H	 -2.792755	 1.659207	 -0.510840
H	 -2.670247	 2.088680	 1.196842
C	 -0.299904	 0.962487	 1.446009
C	 1.173592	 0.845747	 1.133940
H	 -0.443361	 1.715103	 2.222338
H	 -0.661509	 0.010898	 1.830357
O	 1.392611	 -0.295398	 0.366430
H	 1.499410	 1.737832	 0.602871
H	 1.734176	 0.786700	 2.067724
C	 2.706965	 -0.449871	 -0.062409
H	 2.756559	 -0.644779	 -1.131878
H	 3.305899	 0.433456	 0.155466
H	 3.125548	 -1.294566	 0.467107

3 6 7 11 F
2 3 6 7 F
