%nprocshared=4
%mem=2GB
#HF/6-31G* nosymm scf=tight opt=ModRedundant

Mol

0 1
O	 3.225979	 0.970355	 -0.599647
C	 2.701189	 0.057885	 -0.047330
C	 1.245376	 -0.013843	 0.345420
O	 3.347903	 -1.046386	 0.304773
C	 0.987388	 0.445689	 1.778733
H	 0.691391	 0.576436	 -0.376981
H	 0.921759	 -1.041350	 0.199820
C	 -0.468610	 0.280208	 2.227262
H	 1.288402	 1.483868	 1.882153
H	 1.630514	 -0.119988	 2.444182
C	 -1.475313	 1.170197	 1.492701
H	 -0.520618	 0.501492	 3.290772
H	 -0.764217	 -0.762613	 2.121667
C	 -2.894843	 1.048614	 2.050510
H	 -1.150673	 2.207521	 1.558930
H	 -1.491809	 0.922273	 0.433818
C	 -3.910386	 1.929628	 1.320705
H	 -2.889380	 1.308234	 3.107772
H	 -3.216015	 0.009670	 1.994449
C	 -5.324711	 1.805239	 1.886315
H	 -3.590452	 2.968064	 1.374888
H	 -3.920439	 1.668623	 0.264506
H	 -6.021183	 2.441159	 1.348599
H	 -5.354882	 2.093125	 2.933409
H	 -5.687071	 0.783534	 1.814988
C	 4.728119	 -1.109107	 -0.004993
H	 4.882018	 -1.033965	 -1.071845
H	 5.068212	 -2.067527	 0.355250
H	 5.265056	 -0.311663	 0.488280

6 3 2 1 F
