%nprocshared=4
%mem=2GB
#HF/cc-pVTZ nosymm scf=tight opt=ModRedundant

Mol

0 1
O	 -2.453001	 -0.951265	 -0.350555
C	 -1.929491	 0.054550	 -0.010886
C	 -2.638310	 1.364733	 0.187732
O	 -0.637375	 0.157174	 0.243149
H	 -2.211868	 2.111912	 -0.469222
H	 -3.688495	 1.242665	 -0.021665
H	 -2.497654	 1.703731	 1.205998
C	 0.162530	 -1.009518	 0.097799
C	 1.587210	 -0.664190	 0.477086
H	 0.096803	 -1.356267	 -0.924704
H	 -0.233803	 -1.785900	 0.736810
C	 2.256770	 0.342732	 -0.454344
H	 2.154716	 -1.590834	 0.479041
H	 1.598751	 -0.289614	 1.496104
C	 3.698146	 0.643205	 -0.057145
H	 2.235038	 -0.042575	 -1.470299
H	 1.683491	 1.262594	 -0.461300
H	 4.150202	 1.356548	 -0.736242
H	 4.305463	 -0.255904	 -0.069842
H	 3.749130	 1.061068	 0.942759

2 4 8 10 F
