%nprocshared=4
%mem=2GB
#HF/6-31G* nosymm scf=tight opt=ModRedundant

Mol

0 1
H	 -3.161837	 0.500524	 -0.000234
C	 -2.367097	 -0.232926	 -0.000000
O	 -1.158440	 0.455814	 -0.000122
H	 -2.468853	 -0.861886	 -0.882833
H	 -2.468942	 -0.861421	 0.883154
C	 -0.029776	 -0.365156	 0.000148
C	 1.212217	 0.508981	 0.000007
H	 -0.036772	 -1.013236	 -0.877259
H	 -0.036869	 -1.012778	 0.877897
C	 2.339974	 -0.078115	 -0.847556
H	 0.940195	 1.493482	 -0.367993
H	 1.542360	 0.638279	 1.026159
H	 2.037754	 -0.193033	 -1.884803
H	 3.213206	 0.565299	 -0.829395
H	 2.643789	 -1.054766	 -0.481152

11 7 6 8 F
