%nprocshared=1
%mem=2GB
#HF/6-31G* nosymm scf=tight 

Mol

0 1
H	 3.893188	 0.355400	 -0.101367
N	 3.092854	 -0.246221	 -0.068770
C	 1.865559	 0.531981	 0.018834
H	 3.199514	 -0.826043	 0.741946
C	 0.645745	 -0.382037	 -0.029944
H	 1.841966	 1.207024	 -0.831236
H	 1.815756	 1.155410	 0.915079
C	 -0.679275	 0.379305	 0.025956
H	 0.698998	 -0.976915	 -0.937203
H	 0.693479	 -1.083846	 0.802235
C	 -1.833605	 -0.370156	 -0.642030
H	 -0.558447	 1.349429	 -0.453742
H	 -0.938906	 0.583361	 1.063646
C	 -3.154736	 0.396094	 -0.587408
H	 -1.577012	 -0.573971	 -1.679254
H	 -1.958432	 -1.338983	 -0.163024
H	 -3.071977	 1.356394	 -1.088696
H	 -3.952839	 -0.160291	 -1.069146
H	 -3.456411	 0.585246	 0.439044

6 3 5 9 F
12 8 11 15 F
1 2 3 6 F
