%nprocshared=4
%mem=2GB
#HF/cc-pVTZ nosymm scf=tight opt=ModRedundant

Mol

0 1
O	 1.077076	 -0.258615	 1.119000
C	 1.121787	 0.124983	 0.000110
C	 0.246321	 1.199055	 -0.592672
O	 1.969101	 -0.353489	 -0.896273
C	 0.127912	 2.442789	 0.276252
H	 0.651301	 1.439637	 -1.570216
H	 -0.726189	 0.754539	 -0.777312
C	 1.489227	 3.012942	 0.663623
H	 -0.437518	 2.202941	 1.169729
H	 -0.448589	 3.194558	 -0.251039
C	 1.382255	 4.258524	 1.536534
H	 2.063465	 2.254097	 1.188642
H	 2.051184	 3.251170	 -0.235648
H	 0.854999	 4.044215	 2.459928
H	 2.362654	 4.640927	 1.795886
H	 0.842760	 5.048561	 1.025294
C	 3.226978	 0.281687	 -1.004047
H	 3.107866	 1.319775	 -1.276836
H	 3.762124	 -0.246898	 -1.776112
H	 3.765395	 0.222432	 -0.069799

1 2 4 17 F
