%nprocshared=4
%mem=2GB
#HF/cc-pVTZ nosymm scf=tight opt=ModRedundant

Mol

0 1
H	 1.838229	 0.067684	 -1.061627
C	 1.045921	 -0.484944	 -0.604043
C	 1.039342	 -1.865044	 -0.600270
C	 0.000000	 0.179985	 0.000046
H	 1.843553	 -2.400779	 -1.064757
C	 0.000002	 -2.552036	 -0.000007
N	 0.000000	 1.644631	 0.000076
C	 -1.045922	 -0.484969	 0.604107
H	 0.000000	 -3.625035	 -0.000032
C	 -1.039341	 -1.865069	 0.600280
O	 1.050559	 2.194174	 -0.000073
O	 -1.050559	 2.194174	 -0.000074
H	 -1.838225	 0.067641	 1.061720
H	 -1.843554	 -2.400822	 1.064742

2 4 7 11 F
