%nprocshared=1
%mem=2GB
#HF/6-31G* nosymm scf=tight opt=ModRedundant

Mol

0 1
H	 -3.715462	 -2.688991	 1.218960
C	 -3.166077	 -1.806841	 0.953162
C	 -1.927123	 -1.910081	 0.530864
H	 -3.651941	 -0.853396	 1.041415
O	 -1.180634	 -0.819263	 0.215062
H	 -1.424909	 -2.855870	 0.428591
C	 0.051604	 -1.018856	 -0.387932
C	 1.043764	 0.054862	 -0.001873
H	 -0.017620	 -1.041351	 -1.469781
H	 0.437898	 -1.966374	 -0.042284
F	 2.212596	 -0.199467	 -0.571921
F	 0.652529	 1.252447	 -0.405055
F	 1.230877	 0.110694	 1.300533

3 5 7 9 F
