%nprocshared=4
%mem=2GB
#HF/cc-pVTZ nosymm scf=tight opt=ModRedundant

Mol

0 1
H	 -0.519428	 -7.508497	 1.378017
O	 -0.334177	 -7.924276	 0.556652
C	 -1.403346	 -7.739415	 -0.333279
C	 -1.508543	 -6.319026	 -0.868177
H	 -1.226801	 -8.422615	 -1.153066
H	 -2.341294	 -8.032858	 0.134260
C	 -0.186839	 -5.735501	 -1.362591
H	 -2.237835	 -6.306024	 -1.672616
H	 -1.903951	 -5.691138	 -0.073314
C	 0.812315	 -5.493853	 -0.232045
H	 -0.378600	 -4.801962	 -1.880989
H	 0.255818	 -6.412828	 -2.090992
C	 2.181675	 -4.978622	 -0.678859
H	 0.381699	 -4.795720	 0.481682
H	 0.955635	 -6.426324	 0.306868
C	 3.009841	 -5.968591	 -1.496077
H	 2.031046	 -4.081426	 -1.272895
H	 2.750748	 -4.668990	 0.194891
C	 3.483501	 -7.168232	 -0.679428
H	 3.874437	 -5.454981	 -1.910985
H	 2.433698	 -6.327679	 -2.343495
C	 4.787405	 -7.768073	 -1.195101
H	 3.610487	 -6.868801	 0.357294
H	 2.710250	 -7.931867	 -0.682378
H	 5.589371	 -7.037552	 -1.174452
H	 5.096164	 -8.614511	 -0.592342
H	 4.682460	 -8.112344	 -2.218729

20 16 19 22 F
