%nprocshared=4
%mem=2GB
#HF/cc-pVTZ nosymm scf=tight opt=ModRedundant

Mol

0 1
H	 -0.238742	 -0.968373	 -0.858890
N	 -0.625934	 -0.663929	 -0.000707
C	 -1.978635	 -0.158664	 0.001017
C	 0.142876	 -0.746489	 1.107759
H	 -2.519057	 -0.493535	 -0.876362
H	 -1.938890	 0.917202	 -0.004137
H	 -2.514266	 -0.485137	 0.884506
C	 1.526879	 -1.311031	 0.873988
O	 -0.231228	 -0.409768	 2.192074
H	 2.074180	 -0.692216	 0.172469
H	 2.054910	 -1.342479	 1.812743
H	 1.463558	 -2.311263	 0.461501

4 2 3 5 F
