%nprocshared=4
%mem=2GB
#HF/6-31G* nosymm scf=tight opt=ModRedundant

Mol

0 1
H	 -2.484090	 1.101190	 1.337800
C	 -1.830134	 1.688005	 1.979775
O	 -0.494527	 1.345407	 1.795064
H	 -1.936702	 2.733623	 1.725868
H	 -2.141539	 1.543844	 3.013541
C	 -0.200255	 0.017064	 2.091979
C	 1.244560	 -0.262687	 1.750721
H	 -0.362275	 -0.178086	 3.152809
H	 -0.839503	 -0.656996	 1.525404
O	 1.392611	 -0.295398	 0.366430
H	 1.872653	 0.510224	 2.189028
H	 1.536610	 -1.219695	 2.184930
C	 2.706965	 -0.449871	 -0.062409
H	 2.756559	 -0.644779	 -1.131878
H	 3.305899	 0.433456	 0.155466
H	 3.125548	 -1.294566	 0.467107

7 10 13 14 F
