%nprocshared=1
%mem=2GB
#HF/6-31G* nosymm scf=tight opt=ModRedundant

Mol

0 1
O	 0.035913	 -0.220780	 -0.340723
C	 1.122059	 0.121804	 -0.000188
C	 1.496898	 1.502438	 0.480685
O	 2.172624	 -0.688929	 0.000216
C	 0.323525	 2.477212	 0.499499
H	 1.934605	 1.394138	 1.469339
H	 2.297878	 1.862775	 -0.159114
C	 0.730541	 3.867583	 0.989980
H	 -0.463015	 2.079079	 1.133021
H	 -0.099552	 2.548019	 -0.497745
C	 -0.438875	 4.850964	 1.010776
H	 1.154519	 3.790801	 1.989191
H	 1.520599	 4.260717	 0.353329
H	 -1.231725	 4.502549	 1.666254
H	 -0.123637	 5.828339	 1.362398
H	 -0.862619	 4.976290	 0.018619
C	 3.452279	 -0.082609	 0.000533
H	 3.583069	 0.529321	 -0.880332
H	 4.163299	 -0.894027	 0.001117
H	 3.582335	 0.529955	 0.881077

1 2 4 17 F
