%nprocshared=1
%mem=2GB
#HF/6-31G* nosymm scf=tight opt=ModRedundant

Mol

0 1
O	 3.044943	 -3.047031	 -0.592848
C	 2.604198	 -2.088638	 -0.044864
C	 1.160117	 -1.883325	 0.344063
O	 3.347903	 -1.046386	 0.304773
C	 0.265221	 -3.063770	 -0.027184
H	 1.143382	 -1.679458	 1.409591
H	 0.822430	 -0.969558	 -0.138321
C	 -1.220435	 -2.827975	 0.265600
H	 0.606960	 -3.951490	 0.496540
H	 0.390066	 -3.273267	 -1.084041
C	 -1.573509	 -2.701828	 1.750368
H	 -1.782635	 -3.658074	 -0.155812
H	 -1.557104	 -1.937072	 -0.262562
C	 -3.078690	 -2.578068	 1.995551
H	 -1.192726	 -3.571520	 2.283715
H	 -1.075264	 -1.836606	 2.181779
C	 -3.442909	 -2.446151	 3.475441
H	 -3.583855	 -3.447442	 1.578142
H	 -3.461998	 -1.714775	 1.453795
C	 -4.948084	 -2.326905	 3.711937
H	 -3.059750	 -3.307521	 4.018462
H	 -2.942362	 -1.575194	 3.893373
H	 -5.174410	 -2.234867	 4.769724
H	 -5.474345	 -3.199757	 3.335941
H	 -5.356051	 -1.454414	 3.209348
C	 4.728119	 -1.109107	 -0.004993
H	 4.882018	 -1.033965	 -1.071845
H	 5.068212	 -2.067527	 0.355250
H	 5.265056	 -0.311663	 0.488280

2 4 26 27 F
