%nprocshared=1
%mem=2GB
#HF/6-31G* nosymm scf=tight 

Mol

0 1
H	 3.276176	 0.174363	 -0.109463
N	 2.434251	 -0.367735	 -0.081097
C	 1.267428	 0.496480	 0.024474
H	 2.501951	 -0.965776	 0.720575
C	 -0.016086	 -0.325158	 -0.029487
H	 1.288818	 1.183521	 -0.816092
H	 1.267576	 1.109062	 0.929528
C	 -1.282277	 0.529072	 0.046735
H	 -0.012495	 -0.908639	 -0.945788
H	 -0.015903	 -1.041248	 0.791956
C	 -1.560467	 1.296196	 -1.245486
H	 -1.192256	 1.234072	 0.870664
H	 -2.135630	 -0.104626	 0.279481
H	 -0.740093	 1.965666	 -1.487387
H	 -2.462516	 1.894381	 -1.161806
H	 -1.690078	 0.617505	 -2.083818

6 3 5 9 F
1 2 3 6 F
