%nprocshared=4
%mem=2GB
#HF/cc-pVTZ nosymm scf=tight opt=ModRedundant

Mol

0 1
H	 0.372786	 -3.063731	 -4.270100
O	 1.311417	 -3.054546	 -4.296892
C	 1.799065	 -1.830421	 -3.814203
C	 1.658666	 -1.673376	 -2.307448
H	 2.845903	 -1.802073	 -4.084955
H	 1.312159	 -1.000761	 -4.323160
C	 0.576586	 -2.551743	 -1.683409
H	 2.617493	 -1.891253	 -1.846646
H	 1.438421	 -0.629038	 -2.099490
C	 -0.833929	 -2.138553	 -2.101211
H	 0.660040	 -2.510061	 -0.602530
H	 0.744261	 -3.588427	 -1.970561
C	 -1.954540	 -3.030643	 -1.563937
H	 -1.012061	 -1.112086	 -1.789986
H	 -0.886081	 -2.138168	 -3.186452
C	 -1.969511	 -4.454250	 -2.117886
H	 -1.860685	 -3.081835	 -0.482688
H	 -2.914347	 -2.558168	 -1.760644
C	 -3.042096	 -5.332624	 -1.478800
H	 -0.994194	 -4.909727	 -1.960513
H	 -2.126814	 -4.435608	 -3.192089
C	 -3.062276	 -6.753596	 -2.032266
H	 -2.884069	 -5.367255	 -0.404367
H	 -4.016316	 -4.874633	 -1.627802
H	 -2.111464	 -7.250393	 -1.869829
H	 -3.832082	 -7.350033	 -1.556065
H	 -3.256147	 -6.755521	 -3.099863

8 4 3 2 F
