%nprocshared=4
%mem=2GB
#HF/cc-pVTZ nosymm scf=tight opt=ModRedundant

Mol

0 1
H	 -0.000342	 -0.223902	 -3.352295
C	 -0.027146	 0.371068	 -2.446756
C	 0.024493	 -0.518541	 -1.216015
H	 -0.932586	 0.964979	 -2.449855
H	 0.819708	 1.049865	 -2.473332
N	 -0.042516	 0.263377	 -0.000000
H	 -0.822211	 -1.197105	 -1.225584
H	 0.921114	 -1.142847	 -1.255206
C	 0.024493	 -0.518541	 1.216015
H	 0.682568	 0.950412	 -0.000000
C	 1.342113	 -0.299229	 1.940290
H	 -0.795198	 -0.211971	 1.857553
H	 -0.113921	 -1.586411	 1.027023
H	 1.476404	 0.748637	 2.177995
H	 1.373987	 -0.869912	 2.861166
H	 2.181186	 -0.614787	 1.327908

12 9 6 3 F
