%nprocshared=4
%mem=2GB
#HF/cc-pVTZ nosymm scf=tight opt=ModRedundant

Mol

0 1
H	 3.039185	 1.030297	 1.683154
O	 3.752905	 0.756842	 1.137576
C	 3.732591	 -0.636706	 0.973609
C	 2.612964	 -1.124344	 0.066235
H	 4.688839	 -0.897103	 0.540291
H	 3.671782	 -1.131753	 1.940914
C	 1.209428	 -0.888643	 0.619752
H	 2.712584	 -0.635746	 -0.898392
H	 2.759090	 -2.188604	 -0.102278
C	 0.113298	 -1.420414	 -0.302504
H	 1.061509	 0.173877	 0.781533
H	 1.120721	 -1.368769	 1.592838
C	 -1.311023	 -1.277304	 0.237018
H	 0.183958	 -0.921032	 -1.265754
H	 0.303750	 -2.472881	 -0.493583
C	 -2.041121	 -0.006551	 -0.194127
H	 -1.888548	 -2.136293	 -0.093331
H	 -1.289731	 -1.328757	 1.323321
C	 -3.489218	 0.042606	 0.286507
H	 -2.022185	 0.066287	 -1.279394
H	 -1.518764	 0.869305	 0.178730
C	 -4.219984	 1.311773	 -0.139038
H	 -4.022855	 -0.824300	 -0.093339
H	 -3.510372	 -0.038577	 1.370031
H	 -4.244251	 1.405725	 -1.219696
H	 -5.244345	 1.313233	 0.215630
H	 -3.732090	 2.196311	 0.257073

14 10 13 16 F
