%nprocshared=4
%mem=2GB
#HF/cc-pVTZ nosymm scf=tight opt=ModRedundant

Mol

0 1
O	 2.868453	 1.353349	 -0.000734
C	 2.841259	 0.166180	 -0.000295
C	 1.542794	 -0.614730	 -0.000853
C	 4.113372	 -0.651103	 0.000743
C	 0.288398	 0.247429	 0.000314
H	 1.557171	 -1.273139	 -0.866508
H	 1.557484	 -1.274998	 0.863344
C	 -0.663466	 -0.103328	 1.140505
H	 -0.219637	 0.137137	 -0.950923
H	 0.574348	 1.290950	 0.066871
C	 -1.925705	 0.753953	 1.152855
H	 -0.944066	 -1.151847	 1.068768
H	 -0.146606	 0.007621	 2.091193
C	 -2.883017	 0.408966	 2.290077
H	 -2.443179	 0.643527	 0.203044
H	 -1.646283	 1.802189	 1.225332
C	 -4.141927	 1.269722	 2.295749
H	 -3.163790	 -0.638352	 2.217738
H	 -2.366989	 0.520300	 3.239939
H	 -4.699129	 1.153979	 1.372077
H	 -4.799276	 0.999488	 3.114215
H	 -3.896467	 2.321143	 2.402091
H	 4.145311	 -1.294584	 -0.871587
H	 4.970080	 0.004978	 -0.000091
H	 4.145223	 -1.291980	 0.874988

9 5 3 6 F
