%nprocshared=4
%mem=2GB
#HF/cc-pVTZ nosymm scf=tight opt=ModRedundant

Mol

0 1
H	 -3.258660	 -0.290394	 1.471450
C	 -3.307964	 -0.275695	 0.374072
C	 -2.653809	 0.914422	 -0.273689
O	 -3.855140	 -1.148880	 -0.205112
C	 -2.339312	 2.033655	 0.723349
H	 -1.764253	 0.579305	 -0.791106
H	 -3.353939	 1.285940	 -1.018737
C	 -1.257446	 1.665689	 1.736438
H	 -2.028465	 2.911175	 0.166866
H	 -3.249597	 2.315366	 1.247003
C	 -0.947311	 2.794361	 2.716080
H	 -0.351295	 1.390237	 1.203405
H	 -1.558991	 0.781602	 2.292217
C	 0.143552	 2.427704	 3.720484
H	 -0.655107	 3.676516	 2.155043
H	 -1.853937	 3.060963	 3.254829
C	 0.431887	 3.497988	 4.774646
H	 1.061551	 2.197235	 3.184810
H	 -0.146819	 1.512832	 4.229402
C	 1.035717	 4.788508	 4.225983
H	 1.113969	 3.080046	 5.508458
H	 -0.484657	 3.728582	 5.311376
H	 1.950924	 4.587924	 3.678117
H	 0.356100	 5.303007	 3.557330
H	 1.277690	 5.472080	 5.031678

6 3 2 4 F
