%nprocshared=4
%mem=2GB
#HF/cc-pVTZ nosymm scf=tight opt=ModRedundant

Mol

0 1
H	 1.651322	 -0.822465	 0.000000
O	 0.729993	 -1.034364	 0.000000
C	 0.037305	 0.100061	 0.000000
C	 -0.848800	 0.217628	 1.203774
O	 0.133403	 0.900307	 -0.864388
H	 -1.538209	 -0.616405	 1.227736
H	 -1.390196	 1.148241	 1.164092
H	 -0.246218	 0.172494	 2.101731

4 3 2 1 F
