%nprocshared=1
%mem=2GB
#HF/6-31G* nosymm scf=tight 

Mol

0 1
H	 2.608607	 -4.041577	 2.010861
O	 3.387589	 -3.895885	 1.494108
C	 3.070570	 -3.972915	 0.127500
C	 2.284082	 -2.767657	 -0.376005
H	 4.018505	 -4.033551	 -0.391553
H	 2.525861	 -4.891850	 -0.086111
C	 0.901307	 -2.615905	 0.262565
H	 2.871206	 -1.871590	 -0.192382
H	 2.175770	 -2.860349	 -1.455377
C	 0.115918	 -1.429151	 -0.302766
H	 1.015022	 -2.497214	 1.336505
H	 0.328290	 -3.530105	 0.106905
C	 -1.309753	 -1.282496	 0.241564
H	 0.669374	 -0.511051	 -0.114018
H	 0.062369	 -1.533317	 -1.384423
C	 -2.037799	 -0.007733	 -0.193645
H	 -1.890610	 -2.142323	 -0.085726
H	 -1.285946	 -1.330893	 1.329189
C	 -3.489788	 0.042957	 0.286558
H	 -2.017067	 0.064384	 -1.280144
H	 -1.513726	 0.868678	 0.179924
C	 -4.216917	 1.317354	 -0.141063
H	 -4.025645	 -0.823308	 -0.095450
H	 -3.513059	 -0.038752	 1.371301
H	 -4.239342	 1.411634	 -1.223113
H	 -5.243387	 1.322503	 0.212445
H	 -3.726170	 2.201406	 0.256408

14 10 7 4 F
10 7 4 8 F
8 4 3 2 F
10 13 16 20 F
20 16 19 22 F
4 3 2 1 F
