%nprocshared=1
%mem=2GB
#HF/6-31G* nosymm scf=tight 

Mol

0 1
H	 2.591676	 2.013956	 0.335017
O	 3.341076	 1.666752	 -0.126416
C	 3.569581	 0.339145	 0.272707
C	 2.539767	 -0.640285	 -0.279495
H	 4.553106	 0.084646	 -0.100901
H	 3.608576	 0.269204	 1.359154
C	 3.129198	 -1.706362	 -1.206275
H	 2.037743	 -1.120522	 0.556394
H	 1.784555	 -0.070319	 -0.818159
C	 2.063352	 -2.640198	 -1.786569
H	 3.863220	 -2.290055	 -0.657751
H	 3.662044	 -1.220774	 -2.023967
C	 2.589668	 -3.673907	 -2.788954
H	 1.556209	 -3.154440	 -0.972192
H	 1.305870	 -2.035783	 -2.281142
C	 3.525865	 -4.729597	 -2.194368
H	 1.737188	 -4.179776	 -3.237496
H	 3.097423	 -3.158933	 -3.603095
C	 3.939680	 -5.798292	 -3.208314
H	 3.035129	 -5.209120	 -1.348586
H	 4.420990	 -4.255792	 -1.798690
C	 4.879329	 -6.849725	 -2.619067
H	 3.050007	 -6.287978	 -3.598415
H	 4.421522	 -5.320108	 -4.058639
H	 4.413627	 -7.369003	 -1.786183
H	 5.152670	 -7.593609	 -3.361063
H	 5.796036	 -6.395827	 -2.253023

14 10 7 4 F
14 10 13 16 F
10 7 4 8 F
10 13 16 20 F
20 16 19 22 F
4 3 2 1 F
