%nprocshared=4
%mem=2GB
#HF/6-31G* nosymm scf=tight opt=ModRedundant

Mol

0 1
H	 -3.185215	 -2.496920	 2.238962
C	 -2.863623	 -1.740803	 1.549377
C	 -1.643817	 -1.773515	 1.064605
H	 -3.557745	 -0.969821	 1.272444
O	 -1.180634	 -0.819263	 0.215062
H	 -0.935885	 -2.540919	 1.323679
C	 0.051604	 -1.018856	 -0.387932
C	 1.043764	 0.054862	 -0.001873
H	 -0.017620	 -1.041351	 -1.469781
H	 0.437898	 -1.966374	 -0.042284
F	 2.212596	 -0.199467	 -0.571921
F	 0.652529	 1.252447	 -0.405055
F	 1.230877	 0.110694	 1.300533

3 5 7 9 F
