%nprocshared=4
%mem=2GB
#HF/cc-pVTZ nosymm scf=tight opt=ModRedundant

Mol

0 1
H	 -3.436473	 1.252944	 -1.023892
O	 -3.458596	 0.315260	 -0.960865
C	 -3.176635	 -0.080824	 0.355601
C	 -1.763371	 0.265266	 0.799691
H	 -3.321825	 -1.153438	 0.379502
H	 -3.895468	 0.357385	 1.043382
C	 -0.673390	 -0.426948	 -0.013392
H	 -1.631049	 1.344913	 0.747560
H	 -1.664587	 -0.001624	 1.849167
C	 0.737842	 -0.043159	 0.423759
H	 -0.806103	 -0.190518	 -1.063345
H	 -0.797221	 -1.503753	 0.074146
C	 1.543188	 -1.231821	 0.944863
H	 1.253665	 0.415343	 -0.414449
H	 0.681244	 0.717173	 1.199999
C	 2.937026	 -0.884292	 1.470493
H	 1.633544	 -1.976384	 0.157265
H	 0.982315	 -1.706229	 1.745474
C	 3.913222	 -0.383732	 0.408596
H	 3.357316	 -1.769137	 1.938661
H	 2.848021	 -0.139699	 2.257309
H	 4.017902	 -1.105844	 -0.394942
H	 4.896322	 -0.222011	 0.835915
H	 3.591377	 0.553491	 -0.029164

13 10 7 11 F
