%nprocshared=1
%mem=2GB
#HF/6-31G* nosymm scf=tight 

Mol

0 1
H	 4.119831	 -0.547539	 -1.883514
C	 3.459113	 -0.838145	 -1.073113
C	 2.175011	 -0.009973	 -1.086334
H	 3.244427	 -1.897033	 -1.186668
H	 4.003260	 -0.709553	 -0.141655
C	 1.217350	 -0.386724	 0.039429
H	 1.659797	 -0.132316	 -2.033950
H	 2.426980	 1.046070	 -1.004629
N	 0.000003	 0.397874	 -0.023260
H	 0.945135	 -1.434360	 -0.057113
H	 1.727909	 -0.287498	 1.003204
C	 -1.217365	 -0.386708	 0.039277
H	 -0.000031	 1.072115	 0.718656
C	 -2.452633	 0.504241	 -0.042481
H	 -1.215291	 -1.074557	 -0.802042
H	 -1.269739	 -1.003477	 0.942735
C	 -3.758029	 -0.289423	 -0.010781
H	 -2.394220	 1.093569	 -0.952170
H	 -2.440793	 1.210787	 0.785871
H	 -3.816659	 -0.981993	 -0.845726
H	 -4.617837	 0.370165	 -0.069296
H	 -3.847478	 -0.867502	 0.904682

15 12 14 18 F
