%nprocshared=1
%mem=2GB
#HF/6-31G* nosymm scf=tight opt=ModRedundant

Mol

0 1
O	 1.603174	 3.334436	 -1.764532
C	 0.903313	 3.211091	 -2.722519
C	 -0.371728	 2.387478	 -2.693015
C	 1.246008	 3.874511	 -4.040696
C	 -0.664463	 1.742939	 -1.341309
H	 -1.193464	 3.034581	 -2.996981
H	 -0.297528	 1.630372	 -3.472557
C	 -1.955439	 0.922535	 -1.350263
H	 -0.724503	 2.517579	 -0.583378
H	 0.172296	 1.111600	 -1.059542
C	 -2.259874	 0.272531	 0.000494
H	 -2.789867	 1.560947	 -1.636982
H	 -1.889100	 0.148629	 -2.113634
C	 -3.549786	 -0.549746	 -0.000374
H	 -2.327112	 1.045311	 0.764240
H	 -1.426781	 -0.366575	 0.287715
C	 -4.809590	 0.315458	 -0.000369
H	 -3.560515	 -1.202009	 -0.871156
H	 -3.561123	 -1.202955	 0.869711
H	 -4.844746	 0.956611	 -0.876632
H	 -5.706986	 -0.295590	 -0.001609
H	 -4.845960	 0.954827	 0.877144
H	 0.448506	 4.545716	 -4.345807
H	 2.167512	 4.430928	 -3.940370
H	 1.356207	 3.128748	 -4.822571

15 11 14 18 F
