%nprocshared=1
%mem=2GB
#HF/6-31G* nosymm scf=tight opt=ModRedundant

Mol

0 1
H	 -2.300070	 -0.379612	 2.435207
C	 -2.138572	 -1.418169	 2.153323
O	 -0.952409	 -1.574278	 1.443404
H	 -2.062756	 -2.016680	 3.050641
H	 -2.998298	 -1.756794	 1.576580
C	 -0.904937	 -0.860834	 0.248418
C	 0.462231	 -1.019981	 -0.374261
H	 -1.660110	 -1.233587	 -0.444738
H	 -1.099804	 0.195786	 0.420423
O	 1.392611	 -0.295398	 0.366430
H	 0.724460	 -2.075752	 -0.398583
H	 0.432264	 -0.657138	 -1.402434
C	 2.706965	 -0.449871	 -0.062409
H	 2.756559	 -0.644779	 -1.131878
H	 3.305899	 0.433456	 0.155466
H	 3.125548	 -1.294566	 0.467107

7 10 13 14 F
