%nprocshared=4
%mem=2GB
#HF/cc-pVTZ nosymm scf=tight opt=ModRedundant

Mol

0 1
O	 1.049237	 4.201884	 -1.031816
C	 0.052876	 4.532247	 -1.587005
C	 -1.205130	 3.687986	 -1.565152
C	 -0.025650	 5.829809	 -2.359269
C	 -1.080416	 2.390726	 -0.778774
H	 -2.006713	 4.305272	 -1.165788
H	 -1.482989	 3.487735	 -2.597479
C	 -2.370106	 1.574776	 -0.784776
H	 -0.793926	 2.619563	 0.241359
H	 -0.269613	 1.801368	 -1.191559
C	 -2.258482	 0.271340	 0.000669
H	 -3.179322	 2.172956	 -0.371710
H	 -2.652390	 1.350682	 -1.811109
C	 -3.544441	 -0.550271	 -0.000253
H	 -1.976582	 0.494325	 1.026789
H	 -1.450359	 -0.327646	 -0.411982
C	 -4.804551	 0.308747	 0.000556
H	 -3.553737	 -1.201524	 -0.870151
H	 -3.553831	 -1.203282	 0.868313
H	 -4.842050	 0.949078	 -0.874436
H	 -5.698404	 -0.304480	 -0.000254
H	 -4.842277	 0.947103	 0.876982
H	 -0.808629	 6.460376	 -1.952603
H	 0.920707	 6.345513	 -2.305894
H	 -0.276320	 5.633268	 -3.395888

15 11 14 18 F
