%nprocshared=4
%mem=2GB
#HF/6-31G* nosymm scf=tight opt=ModRedundant

Mol

0 1
H	 3.815641	 4.741262	 -1.659539
C	 3.304956	 3.855221	 -1.326498
C	 1.975801	 3.928330	 -0.937718
C	 3.977726	 2.644113	 -1.287387
H	 1.455207	 4.868223	 -0.968532
C	 1.319835	 2.788630	 -0.509612
H	 5.008043	 2.589374	 -1.589143
C	 3.323118	 1.501959	 -0.859199
H	 0.291493	 2.826447	 -0.205056
C	 1.991004	 1.571915	 -0.468888
H	 3.839848	 0.562653	 -0.827329
C	 1.239129	 0.373821	 0.000060
O	 1.970282	 -0.730723	 0.000018
O	 0.098305	 0.395768	 0.341961
C	 3.377318	 -0.566646	 -0.000065
H	 3.695437	 -0.028981	 -0.881264
H	 3.789299	 -1.563704	 0.000236
H	 3.695516	 -0.028316	 0.880770

10 12 13 15 F
