%nprocshared=4
%mem=2GB
#HF/cc-pVTZ nosymm scf=tight opt=ModRedundant

Mol

0 1
H	 -3.262210	 0.988792	 -0.432359
C	 -2.751341	 1.871823	 -0.055329
O	 -1.392850	 1.833172	 -0.339142
H	 -3.165207	 2.745290	 -0.537677
H	 -2.934463	 1.944119	 1.015243
C	 -0.718530	 0.758693	 0.228682
C	 0.718529	 0.758687	 -0.228709
H	 -0.742799	 0.829992	 1.316017
H	 -1.184431	 -0.182163	 -0.056200
O	 1.401606	 -0.295166	 0.366636
H	 0.748705	 0.673477	 -1.312803
H	 1.176496	 1.708671	 0.046552
C	 2.714315	 -0.441627	 -0.061017
H	 2.765292	 -0.641548	 -1.128869
H	 3.305661	 0.447341	 0.150952
H	 3.143725	 -1.278506	 0.470147

3 6 7 11 F
