%nprocshared=4
%mem=2GB
#HF/cc-pVTZ nosymm scf=tight opt=ModRedundant

Mol

0 1
H	 -3.144994	 -1.202467	 -0.018751
O	 -2.321472	 -0.864941	 -0.318626
C	 -2.021813	 0.336996	 0.342658
C	 -0.669613	 0.837286	 -0.127252
H	 -2.780861	 1.084746	 0.127159
H	 -2.006390	 0.184138	 1.420053
C	 0.490865	 -0.082543	 0.241244
H	 -0.708709	 0.967192	 -1.204587
H	 -0.507562	 1.822272	 0.303070
C	 0.033402	 -1.445417	 0.753013
H	 1.103482	 0.400687	 0.993737
H	 1.126548	 -0.222693	 -0.630758
C	 1.192671	 -2.368138	 1.114214
H	 -0.599817	 -1.306004	 1.624965
H	 -0.587036	 -1.925255	 0.000349
H	 1.811972	 -1.931186	 1.890393
H	 0.835621	 -3.325836	 1.475647
H	 1.826876	 -2.555177	 0.253839

10 7 4 8 F
