%nprocshared=4
%mem=2GB
#HF/6-31G* nosymm scf=tight opt=ModRedundant

Mol

0 1
O	 1.525560	 0.915694	 -0.859193
C	 1.705091	 0.115954	 0.001797
C	 0.833403	 -0.074920	 1.219005
O	 2.721346	 -0.737485	 -0.000216
C	 -0.353954	 0.881733	 1.270419
H	 0.505032	 -1.110710	 1.223975
H	 1.468080	 0.037848	 2.093755
C	 -1.219888	 0.665847	 2.512439
H	 -0.954546	 0.754655	 0.375249
H	 0.009423	 1.904337	 1.247067
C	 -2.416230	 1.616690	 2.579677
H	 -1.578246	 -0.362353	 2.531942
H	 -0.611400	 0.792300	 3.406661
C	 -3.280381	 1.401323	 3.821495
H	 -3.026506	 1.489776	 1.688276
H	 -2.059829	 2.644199	 2.561166
H	 -3.680471	 0.391729	 3.850849
H	 -4.119446	 2.089840	 3.840573
H	 -2.705932	 1.554894	 4.730745
C	 4.024888	 -0.184556	 -0.001949
H	 4.179030	 0.422472	 -0.882452
H	 4.701782	 -1.024608	 -0.003642
H	 4.181981	 0.421185	 0.878906

1 2 4 20 F
