%nprocshared=4
%mem=2GB
#HF/cc-pVTZ nosymm scf=tight opt=ModRedundant

Mol

0 1
O	 -0.988175	 -1.402891	 0.050086
C	 -0.675048	 -0.248293	 -0.009686
C	 -1.742492	 0.826599	 -0.011538
N	 0.622280	 0.144970	 -0.099307
H	 -1.692153	 1.431066	 -0.908439
H	 -2.698310	 0.331559	 0.031353
H	 -1.642148	 1.483784	 0.843455
C	 1.162304	 1.012291	 0.926400
C	 1.414532	 0.043676	 -1.301734
H	 2.183600	 0.723506	 1.142689
H	 0.570796	 0.927229	 1.819744
H	 1.162127	 2.050935	 0.605694
H	 2.448577	 -0.129873	 -1.032906
H	 1.096892	 -0.778245	 -1.920157
H	 1.372981	 0.955451	 -1.893329

8 4 2 3 F
