%nprocshared=1
%mem=2GB
#HF/6-31G* nosymm scf=tight 

Mol

0 1
O	 -0.682937	 1.318834	 -0.186099
C	 -0.860635	 0.152188	 -0.042321
C	 -2.173363	 -0.477127	 0.338347
O	 0.083258	 -0.765189	 -0.202595
H	 -2.477673	 -1.180929	 -0.427595
H	 -2.923125	 0.290956	 0.455536
H	 -2.058825	 -1.029004	 1.264191
C	 0.561275	 -1.023266	 -1.520812
C	 1.637558	 -0.033345	 -1.926171
H	 -0.269477	 -1.003579	 -2.209727
H	 0.956780	 -2.027689	 -1.473821
H	 2.034082	 -0.300739	 -2.900850
H	 1.235805	 0.970323	 -1.986285
H	 2.453690	 -0.043463	 -1.211860

10 8 4 2 F
