%nprocshared=4
%mem=2GB
#HF/cc-pVTZ nosymm scf=tight opt=ModRedundant

Mol

0 1
H	 -3.268214	 -0.875720	 0.463107
C	 -2.806015	 0.000007	 0.024886
N	 -1.391133	 0.000016	 0.301321
H	 -3.029448	 0.000055	 -1.045738
H	 -3.268126	 0.875758	 0.463150
C	 -0.938667	 -1.257443	 0.855982
C	 -0.995209	 1.106908	 1.144864
H	 -1.422890	 -1.467933	 1.814142
H	 -1.202523	 -2.056798	 0.173709
C	 0.565436	 -1.245810	 1.054855
H	 -1.300334	 2.033622	 0.673493
H	 -1.483282	 1.057592	 2.122719
C	 0.508894	 1.118541	 1.343738
H	 0.870561	 -2.172524	 1.526227
H	 1.053509	 -1.196494	 0.077000
N	 0.961360	 -0.138918	 1.898398
H	 0.772750	 1.917896	 2.026011
H	 0.993117	 1.329031	 0.385577
C	 2.376242	 -0.138909	 2.174833
H	 2.661033	 -1.072013	 2.644700
H	 2.619417	 0.666041	 2.857096
H	 2.984729	 -0.014320	 1.274623

6 3 2 4 F
