%nprocshared=1
%mem=2GB
#HF/6-31G* nosymm scf=tight 

Mol

0 1
O	 2.469018	 0.342683	 -1.177838
C	 2.701189	 0.057885	 -0.047330
C	 2.316051	 0.873853	 1.162898
O	 3.347903	 -1.046386	 0.304773
C	 1.557081	 2.150802	 0.808664
H	 1.739273	 0.225076	 1.813749
H	 3.231042	 1.100110	 1.704467
C	 1.250849	 3.042082	 2.017108
H	 0.633538	 1.889831	 0.300648
H	 2.144140	 2.714207	 0.091476
C	 0.272913	 2.441215	 3.030869
H	 0.837873	 3.978384	 1.648986
H	 2.180605	 3.300619	 2.521807
C	 -0.084812	 3.410746	 4.159161
H	 -0.636976	 2.139199	 2.514433
H	 0.692292	 1.536531	 3.465196
C	 -1.057413	 2.819198	 5.181046
H	 -0.517896	 4.314255	 3.733317
H	 0.825714	 3.721481	 4.669146
C	 -1.412497	 3.795055	 6.302349
H	 -1.967449	 2.507240	 4.672953
H	 -0.624414	 1.918396	 5.610985
H	 -2.102956	 3.347057	 7.010284
H	 -1.879949	 4.692675	 5.907430
H	 -0.526437	 4.099704	 6.852222
C	 4.728119	 -1.109107	 -0.004993
H	 4.882018	 -1.033965	 -1.071845
H	 5.068212	 -2.067527	 0.355250
H	 5.265056	 -0.311663	 0.488280

21 17 14 11 F
17 14 11 15 F
15 11 8 5 F
6 3 5 9 F
11 8 5 9 F
2 4 26 27 F
6 3 2 1 F
