%nprocshared=1
%mem=2GB
#HF/6-31G* nosymm scf=tight opt=ModRedundant

Mol

0 1
O	 -2.439739	 -0.935931	 -0.423848
C	 -1.921153	 0.064240	 -0.045697
C	 -2.624470	 1.379923	 0.150949
O	 -0.632575	 0.154573	 0.251549
H	 -2.168117	 2.136577	 -0.476876
H	 -3.669540	 1.273223	 -0.098610
H	 -2.519365	 1.700893	 1.180846
C	 0.160891	 -1.019931	 0.106212
C	 1.589627	 -0.672828	 0.480843
H	 0.089836	 -1.367806	 -0.916050
H	 -0.238459	 -1.792301	 0.749618
C	 2.512560	 -1.886908	 0.601694
H	 1.558700	 -0.141786	 1.430037
H	 1.986239	 0.022723	 -0.254117
C	 3.935457	 -1.503588	 1.005958
H	 2.101821	 -2.577659	 1.335354
H	 2.533747	 -2.417265	 -0.344684
H	 4.569936	 -2.380738	 1.083920
H	 3.949331	 -0.998859	 1.967901
H	 4.383664	 -0.835415	 0.276071

12 9 8 10 F
