%nprocshared=4
%mem=2GB
#HF/cc-pVTZ nosymm scf=tight opt=ModRedundant

Mol

0 1
H	 -3.402576	 -0.153035	 0.828328
C	 -3.306202	 -0.013876	 -0.257136
C	 -2.518813	 1.198954	 -0.673013
O	 -3.811604	 -0.782822	 -0.999160
C	 -1.149227	 1.278652	 0.007837
H	 -2.428858	 1.198025	 -1.751550
H	 -3.110663	 2.065899	 -0.387663
C	 -0.181912	 0.181486	 -0.431154
H	 -0.715267	 2.249039	 -0.207494
H	 -1.280754	 1.239674	 1.086436
C	 1.181757	 0.280428	 0.247371
H	 -0.053985	 0.231910	 -1.509208
H	 -0.614368	 -0.794329	 -0.225744
C	 2.151032	 -0.811012	 -0.202643
H	 1.604587	 1.259664	 0.045735
H	 1.051159	 0.219805	 1.325595
C	 3.580021	 -0.656538	 0.320835
H	 2.170545	 -0.847575	 -1.289412
H	 1.766632	 -1.772905	 0.124928
C	 4.327657	 0.562694	 -0.213579
H	 4.138806	 -1.549270	 0.057813
H	 3.561991	 -0.620783	 1.406976
H	 4.355973	 0.557257	 -1.298551
H	 3.867136	 1.491650	 0.100501
H	 5.351524	 0.571613	 0.142204

8 11 14 18 F
