%nprocshared=4
%mem=2GB
#HF/cc-pVTZ nosymm scf=tight opt=ModRedundant

Mol

0 1
H	 -3.907921	 0.997695	 -0.362894
C	 -3.203596	 0.409279	 0.188469
C	 -2.105997	 -0.000418	 -0.398703
H	 -3.416172	 0.171623	 1.212251
O	 -1.189946	 -0.765863	 0.237511
H	 -1.878966	 0.239041	 -1.421563
C	 0.026572	 -0.995256	 -0.379403
C	 1.057223	 0.049888	 -0.004615
H	 -0.054361	 -1.010670	 -1.459674
H	 0.397526	 -1.952058	 -0.044198
F	 2.203233	 -0.234060	 -0.590375
F	 0.698147	 1.254887	 -0.392621
F	 1.266440	 0.094219	 1.288722

6 3 5 7 F
