%nprocshared=1
%mem=2GB
#HF/6-31G* nosymm scf=tight 

Mol

0 1
H	 -3.161837	 0.500524	 -0.000234
C	 -2.367097	 -0.232926	 -0.000000
O	 -1.158440	 0.455814	 -0.000122
H	 -2.468853	 -0.861886	 -0.882833
H	 -2.468942	 -0.861421	 0.883154
C	 -0.029776	 -0.365156	 0.000148
C	 1.212217	 0.508981	 0.000007
H	 -0.036772	 -1.013236	 -0.877259
H	 -0.036869	 -1.012778	 0.877897
C	 0.883402	 1.991579	 0.169320
H	 1.867206	 0.176553	 0.799471
H	 1.747006	 0.347197	 -0.930867
H	 0.368714	 2.178859	 1.107641
H	 1.787198	 2.591564	 0.165188
H	 0.246988	 2.350636	 -0.634706

6 3 2 4 F
8 6 3 2 F
