%nprocshared=4
%mem=2GB
#HF/cc-pVTZ nosymm scf=tight opt=ModRedundant

Mol

0 1
H	 2.614283	 2.028610	 0.296620
O	 3.358864	 1.662087	 -0.142800
C	 3.565468	 0.338079	 0.273842
C	 2.533667	 -0.637565	 -0.272227
H	 4.548038	 0.064914	 -0.086598
H	 3.593945	 0.282242	 1.360360
C	 1.114816	 -0.402372	 0.240993
H	 2.544552	 -0.580764	 -1.356576
H	 2.850574	 -1.642962	 -0.005497
C	 0.470615	 0.848705	 -0.354529
H	 1.133893	 -0.319023	 1.322516
H	 0.498216	 -1.267935	 0.004579
C	 -0.979156	 1.092849	 0.068331
H	 1.071110	 1.717258	 -0.095204
H	 0.503768	 0.771491	 -1.437769
C	 -1.173431	 1.433348	 1.544834
H	 -1.375688	 1.909006	 -0.529312
H	 -1.577242	 0.219159	 -0.180896
C	 -2.621583	 1.765162	 1.895781
H	 -0.540290	 2.279409	 1.803256
H	 -0.843728	 0.605802	 2.165694
C	 -2.819745	 2.101946	 3.369959
H	 -2.955461	 2.601417	 1.287685
H	 -3.256622	 0.924122	 1.630375
H	 -2.221858	 2.959919	 3.659185
H	 -3.856605	 2.334728	 3.584066
H	 -2.530176	 1.270506	 4.004160

10 7 4 8 F
