%nprocshared=4
%mem=2GB
#HF/cc-pVTZ nosymm scf=tight opt=ModRedundant

Mol

0 1
H	 -2.149496	 -2.244167	 0.000000
O	 -2.454378	 -1.354528	 0.000000
C	 -1.430628	 -0.482077	 0.000000
C	 -0.670837	 -0.387835	 -1.156939
C	 -1.123109	 0.302054	 1.091692
H	 -0.926031	 -1.005942	 -1.994703
C	 0.388926	 0.488241	 -1.213536
H	 -1.702500	 0.239295	 1.992978
C	 -0.050726	 1.180818	 1.018227
H	 0.971265	 0.554989	 -2.111735
C	 0.712264	 1.283120	 -0.127557
C	 0.263940	 1.997447	 2.165141
H	 1.536445	 1.965759	 -0.168830
N	 0.507217	 2.634529	 3.063822

5 3 2 1 F
