%nprocshared=4
%mem=2GB
#HF/cc-pVTZ nosymm scf=tight opt=ModRedundant

Mol

0 1
H	 -3.138155	 -0.068349	 -2.680323
O	 -2.858445	 -0.383627	 -1.840944
C	 -1.591217	 0.131618	 -1.529376
C	 -1.175688	 -0.398187	 -0.171891
H	 -0.863790	 -0.165904	 -2.281775
H	 -1.616585	 1.219198	 -1.510535
C	 0.196029	 0.106276	 0.266738
H	 -1.178609	 -1.482946	 -0.210744
H	 -1.928914	 -0.110571	 0.554638
C	 1.330220	 -0.826136	 -0.155230
H	 0.359542	 1.097229	 -0.145561
H	 0.212134	 0.218135	 1.348778
C	 2.719700	 -0.407669	 0.328325
H	 1.339388	 -0.911200	 -1.239363
H	 1.119001	 -1.821953	 0.224128
C	 3.241564	 0.893452	 -0.276737
H	 3.418299	 -1.204729	 0.093035
H	 2.711776	 -0.323368	 1.411960
H	 3.254204	 0.841071	 -1.360784
H	 2.634460	 1.745075	 0.005842
H	 4.254264	 1.092401	 0.054971

8 4 7 10 F
