%nprocshared=1
%mem=2GB
#HF/6-31G* nosymm scf=tight opt=ModRedundant

Mol

0 1
O	 -2.666366	 -0.415245	 0.784775
C	 -2.105666	 -1.382785	 0.367744
C	 -0.871361	 -1.250670	 -0.507096
C	 -2.570982	 -2.780081	 0.711867
C	 0.373411	 -0.949540	 0.343200
H	 -1.044056	 -0.432754	 -1.198105
H	 -0.714981	 -2.155980	 -1.086738
C	 1.631333	 -0.777471	 -0.511575
H	 0.179168	 -0.053265	 0.921426
H	 0.533161	 -1.755922	 1.057326
C	 2.915987	 -0.544314	 0.291766
H	 1.484279	 0.050905	 -1.202149
H	 1.762746	 -1.666369	 -1.125122
C	 3.373361	 0.914346	 0.347591
H	 3.708709	 -1.142521	 -0.150311
H	 2.780642	 -0.921148	 1.303579
H	 3.506512	 1.320010	 -0.651625
H	 4.322697	 0.999599	 0.867103
H	 2.660624	 1.545032	 0.868198
H	 -2.929447	 -3.277134	 -0.185744
H	 -3.368469	 -2.735835	 1.440456
H	 -1.748852	 -3.374355	 1.100126

12 8 11 15 F
