%nprocshared=1
%mem=2GB
#HF/6-31G* nosymm scf=tight 

Mol

0 1
H	 -2.853488	 2.199789	 -1.013108
C	 -3.020267	 1.131254	 -1.197606
C	 -1.985169	 0.465745	 -2.068400
O	 -3.962551	 0.583465	 -0.724555
C	 -0.553397	 0.708759	 -1.571181
H	 -2.213711	 -0.592282	 -2.123694
H	 -2.092533	 0.883255	 -3.068806
C	 -0.252658	 0.041456	 -0.226725
H	 0.138734	 0.337387	 -2.321063
H	 -0.373481	 1.780197	 -1.497648
C	 1.180775	 0.282413	 0.250794
H	 -0.431994	 -1.028289	 -0.312355
H	 -0.947705	 0.403341	 0.528582
C	 2.148627	 -0.814315	 -0.201312
H	 1.516199	 1.249228	 -0.115937
H	 1.192670	 0.346017	 1.338083
C	 3.580890	 -0.659131	 0.322722
H	 2.166869	 -0.852443	 -1.289387
H	 1.762857	 -1.776509	 0.128956
C	 4.324889	 0.564933	 -0.213704
H	 4.142010	 -1.551473	 0.056605
H	 3.564836	 -0.624694	 1.410140
H	 4.342616	 0.565491	 -1.300421
H	 3.866655	 1.493402	 0.110242
H	 5.353900	 0.572371	 0.132816

6 3 5 8 F
6 3 2 4 F
3 5 8 12 F
8 11 14 18 F
20 17 14 18 F
