%nprocshared=4
%mem=2GB
#HF/cc-pVTZ nosymm scf=tight opt=ModRedundant

Mol

0 1
O	 -2.817697	 1.304178	 0.001046
C	 -2.664672	 0.129869	 0.003507
C	 -3.797908	 -0.860100	 -0.001145
O	 -1.481217	 -0.452708	 0.001092
H	 -4.408836	 -0.679689	 -0.875387
H	 -3.443486	 -1.878443	 -0.002770
H	 -4.412123	 -0.683688	 0.871605
C	 -0.332055	 0.384012	 -0.000250
C	 0.892252	 -0.506059	 -0.000295
H	 -0.360822	 1.020205	 -0.874146
H	 -0.359817	 1.021310	 0.872861
C	 2.188199	 0.299473	 -0.001416
H	 0.857046	 -1.152781	 -0.871031
H	 0.857910	 -1.151798	 0.871202
C	 3.235944	 -0.252550	 0.961199
H	 2.602017	 0.319138	 -1.006575
H	 1.973012	 1.332754	 0.259349
C	 4.530695	 0.552824	 0.961254
H	 3.453111	 -1.284517	 0.700546
H	 2.823606	 -0.272534	 1.966020
H	 4.985598	 0.562672	 -0.023535
H	 5.251966	 0.135400	 1.654097
H	 4.351155	 1.582589	 1.251432

16 12 9 13 F
