%nprocshared=4
%mem=2GB
#HF/cc-pVTZ nosymm scf=tight opt=ModRedundant

Mol

0 1
O	 -0.694481	 1.313155	 -0.204815
C	 -0.862519	 0.151932	 -0.046791
C	 -2.171428	 -0.477048	 0.339095
O	 0.085519	 -0.757083	 -0.192238
H	 -2.467997	 -1.191667	 -0.417688
H	 -2.923379	 0.287970	 0.444097
H	 -2.053854	 -1.015120	 1.270901
C	 1.392036	 -0.330828	 -0.560749
C	 1.995246	 -1.227765	 -1.621664
H	 2.015598	 -0.295264	 0.318866
H	 1.256679	 0.672216	 -0.936689
H	 2.959268	 -0.834681	 -1.924317
H	 2.140794	 -2.230236	 -1.243180
H	 1.355757	 -1.270903	 -2.495040

10 8 4 2 F
