%nprocshared=4
%mem=2GB
#HF/cc-pVTZ nosymm scf=tight opt=ModRedundant

Mol

0 1
H	 -2.853862	 -0.331946	 0.038977
N	 -1.903401	 -0.201448	 0.312227
C	 -1.244029	 0.768544	 -0.542457
H	 -1.445245	 -1.085328	 0.242612
C	 0.197294	 0.949714	 -0.124829
H	 -1.264739	 0.500788	 -1.598119
H	 -1.749239	 1.722539	 -0.438980
O	 0.881195	 -0.248324	 -0.336237
H	 0.653356	 1.748645	 -0.707830
H	 0.241249	 1.226710	 0.926013
C	 2.208068	 -0.234417	 0.074171
H	 2.725499	 -1.027054	 -0.446768
H	 2.688377	 0.712084	 -0.164856
H	 2.295137	 -0.403407	 1.144883

5 8 11 13 F
