%nprocshared=1
%mem=2GB
#HF/6-31G* nosymm scf=tight opt=ModRedundant

Mol

0 1
O	 -0.988096	 -1.408613	 0.050699
C	 -0.676749	 -0.249230	 -0.009274
C	 -1.746085	 0.827156	 -0.009539
N	 0.623947	 0.147590	 -0.102813
H	 -1.701500	 1.431508	 -0.908902
H	 -2.703425	 0.330732	 0.036390
H	 -1.647323	 1.487769	 0.845106
C	 1.618298	 -0.536428	 0.700469
C	 1.047164	 1.409033	 -0.670170
H	 2.532539	 -0.645714	 0.127550
H	 1.250031	 -1.509655	 0.974606
H	 1.846241	 0.021266	 1.606251
H	 2.022802	 1.283620	 -1.124526
H	 0.370190	 1.745564	 -1.439187
H	 1.126927	 2.188155	 0.085753

8 4 2 3 F
