%nprocshared=4
%mem=2GB
#HF/cc-pVTZ nosymm scf=tight opt=ModRedundant

Mol

0 1
O	 0.556314	 1.252433	 -0.706887
C	 0.449281	 0.121213	 -0.374120
C	 1.576390	 -0.879048	 -0.319671
O	 -0.695554	 -0.422406	 0.000602
C	 2.917914	 -0.301845	 -0.741717
H	 1.292267	 -1.717094	 -0.946490
H	 1.613755	 -1.265675	 0.692781
H	 2.880677	 0.067574	 -1.757769
H	 3.685691	 -1.063659	 -0.682500
H	 3.205104	 0.523114	 -0.103602
C	 -1.852370	 0.402254	 0.000718
C	 -3.063338	 -0.501097	 -0.000437
H	 -1.831732	 1.039442	 -0.872158
H	 -1.832493	 1.038301	 0.874430
H	 -3.071944	 -1.133732	 -0.879113
H	 -3.966302	 0.097976	 -0.000483
H	 -3.072764	 -1.134834	 0.877435

2 4 11 13 F
