%nprocshared=4
%mem=2GB
#HF/cc-pVTZ nosymm scf=tight opt=ModRedundant

Mol

0 1
H	 -3.268214	 -0.875720	 0.463107
C	 -2.806015	 0.000007	 0.024886
N	 -1.391133	 0.000016	 0.301321
H	 -3.029448	 0.000055	 -1.045738
H	 -3.268126	 0.875758	 0.463150
C	 -0.763189	 1.257482	 -0.042253
C	 -0.706813	 -1.106870	 -0.331168
H	 -0.851168	 1.467968	 -1.112208
H	 -1.264449	 2.056832	 0.490534
C	 0.705160	 1.245868	 0.339622
H	 -1.166906	 -2.033588	 -0.009302
H	 -0.790944	 -1.057557	 -1.420818
C	 0.761537	 -1.118483	 0.050707
H	 1.165253	 2.172586	 0.017756
H	 0.789292	 1.196556	 1.429272
N	 1.389480	 0.138983	 -0.292867
H	 1.262796	 -1.917833	 -0.482080
H	 0.849515	 -1.328969	 1.120663
C	 2.804362	 0.138992	 -0.016432
H	 3.245051	 1.072100	 -0.344557
H	 3.286459	 -0.665954	 -0.556993
H	 3.029278	 0.014408	 1.046606

6 3 2 4 F
