%nprocshared=1
%mem=2GB
#HF/6-31G* nosymm scf=tight 

Mol

0 1
H	 -3.846121	 1.486311	 -1.021938
O	 -3.132066	 0.911229	 -1.257118
C	 -2.106962	 1.016470	 -0.302824
C	 -0.981358	 0.082476	 -0.710768
H	 -1.739923	 2.040375	 -0.246190
H	 -2.475068	 0.746916	 0.686206
C	 0.198102	 0.111031	 0.262842
H	 -0.650705	 0.360635	 -1.707776
H	 -1.382511	 -0.924549	 -0.784610
C	 1.331804	 -0.827780	 -0.158768
H	 0.571001	 1.129237	 0.342697
H	 -0.145032	 -0.169116	 1.257978
C	 2.723619	 -0.410569	 0.329459
H	 1.342964	 -0.912588	 -1.244120
H	 1.116806	 -1.824343	 0.220779
C	 3.243875	 0.895854	 -0.272975
H	 3.424222	 -1.207124	 0.091250
H	 2.714788	 -0.329854	 1.414619
H	 3.251977	 0.848779	 -1.358681
H	 2.637085	 1.747371	 0.016682
H	 4.259473	 1.094070	 0.055697

2 3 4 8 F
8 4 7 10 F
16 13 10 14 F
1 2 3 5 F
