%nprocshared=4
%mem=2GB
#HF/cc-pVTZ nosymm scf=tight opt=ModRedundant

Mol

0 1
H	 3.721907	 -0.933076	 -0.066039
O	 2.824271	 -1.154299	 0.131461
C	 2.076458	 -0.067370	 -0.038225
C	 0.626018	 -0.337582	 0.258241
O	 2.538288	 0.965419	 -0.381593
C	 -0.267326	 0.883135	 0.076490
H	 0.325620	 -1.161483	 -0.378003
H	 0.574537	 -0.713685	 1.275261
C	 -1.726822	 0.642622	 0.463839
H	 -0.210803	 1.217591	 -0.953497
H	 0.129920	 1.693110	 0.675679
C	 -2.008604	 -0.706866	 1.122263
H	 -2.330532	 0.720546	 -0.435447
H	 -2.063471	 1.440729	 1.121973
C	 -3.493113	 -0.933084	 1.389723
H	 -1.633038	 -1.500911	 0.482360
H	 -1.466775	 -0.787160	 2.059242
H	 -3.665848	 -1.896880	 1.854420
H	 -4.065547	 -0.902010	 0.468826
H	 -3.891797	 -0.171008	 2.051120

12 9 6 10 F
