%nprocshared=4
%mem=2GB
#HF/6-31G* nosymm scf=tight opt=ModRedundant

Mol

0 1
H	 3.893188	 0.355400	 -0.101367
N	 3.092854	 -0.246221	 -0.068770
C	 1.865559	 0.531981	 0.018834
H	 3.199514	 -0.826043	 0.741946
C	 0.645745	 -0.382037	 -0.029944
H	 1.841966	 1.207024	 -0.831236
H	 1.815756	 1.155410	 0.915079
C	 -0.679275	 0.379305	 0.025956
H	 0.698998	 -0.976915	 -0.937203
H	 0.693479	 -1.083846	 0.802235
C	 -1.130897	 0.903939	 -1.338291
H	 -0.585883	 1.215722	 0.716995
H	 -1.454349	 -0.267495	 0.434314
C	 -2.453266	 1.667548	 -1.277037
H	 -0.358651	 1.551455	 -1.747649
H	 -1.227618	 0.070005	 -2.030284
H	 -2.378699	 2.528437	 -0.618533
H	 -2.746264	 2.026940	 -2.258665
H	 -3.254280	 1.035614	 -0.903639

12 8 5 9 F
