%nprocshared=4
%mem=2GB
#HF/cc-pVTZ nosymm scf=tight opt=ModRedundant

Mol

0 1
O	 -4.741559	 3.677983	 3.374923
C	 -3.562142	 3.759984	 3.486103
C	 -2.630085	 2.634875	 3.084568
C	 -2.907686	 5.004973	 4.041002
C	 -2.930863	 2.021940	 1.724174
H	 -1.614819	 3.023858	 3.116108
H	 -2.673335	 1.879345	 3.865793
C	 -2.870455	 0.497092	 1.741467
H	 -2.227933	 2.410305	 0.996042
H	 -3.911258	 2.348153	 1.396233
C	 -3.169946	 -0.130148	 0.383083
H	 -1.885259	 0.177181	 2.073613
H	 -3.576532	 0.114738	 2.475308
C	 -2.287581	 0.405388	 -0.740914
H	 -4.213761	 0.041108	 0.131618
H	 -3.047963	 -1.208372	 0.451504
C	 -2.668341	 1.814699	 -1.182109
H	 -1.250134	 0.397776	 -0.417517
H	 -2.345064	 -0.266142	 -1.593358
H	 -2.587573	 2.517385	 -0.359461
H	 -2.023408	 2.164595	 -1.980016
H	 -3.690482	 1.848512	 -1.544226
H	 -2.221465	 5.423139	 3.312795
H	 -3.662109	 5.735040	 4.290482
H	 -2.329392	 4.760820	 4.925313

9 5 3 6 F
