%nprocshared=4
%mem=2GB
#HF/cc-pVTZ nosymm scf=tight opt=ModRedundant

Mol

0 1
O	 1.619493	 1.024032	 0.758612
C	 1.704209	 0.119472	 -0.000093
C	 0.703924	 -0.217553	 -1.075958
O	 2.715427	 -0.733672	 0.000025
C	 -0.485657	 0.730434	 -1.126376
H	 1.239112	 -0.227216	 -2.019849
H	 0.384298	 -1.240756	 -0.907622
C	 -1.476992	 0.360011	 -2.225493
H	 -0.129392	 1.743069	 -1.277767
H	 -0.985052	 0.728543	 -0.164143
C	 -2.677597	 1.299524	 -2.291315
H	 -0.969257	 0.361310	 -3.187499
H	 -1.827957	 -0.657709	 -2.069586
C	 -3.668170	 0.929648	 -3.390119
H	 -2.328276	 2.316180	 -2.447972
H	 -3.186432	 1.297772	 -1.331500
H	 -3.197225	 0.956088	 -4.367230
H	 -4.507004	 1.615739	 -3.409358
H	 -4.062471	 -0.070221	 -3.241718
C	 4.020999	 -0.192556	 0.000019
H	 4.182809	 0.412891	 -0.879449
H	 4.692590	 -1.035653	 0.000152
H	 4.182726	 0.413087	 0.879368

1 2 4 20 F
