%nprocshared=1
%mem=2GB
#HF/6-31G* nosymm scf=tight opt=ModRedundant

Mol

0 1
O	 1.893217	 0.088086	 -0.918726
C	 2.701189	 0.057885	 -0.047330
C	 3.130336	 1.233849	 0.796311
O	 3.347903	 -1.046386	 0.304773
C	 2.403257	 2.527594	 0.436179
H	 2.975116	 0.955085	 1.833320
H	 4.205210	 1.342661	 0.675885
C	 2.901923	 3.752041	 1.211135
H	 1.337687	 2.397614	 0.599839
H	 2.522981	 2.707054	 -0.626780
C	 2.625799	 3.719115	 2.717051
H	 2.425484	 4.634223	 0.789846
H	 3.970539	 3.877247	 1.042632
C	 3.042792	 5.008878	 3.426719
H	 1.563584	 3.545220	 2.882208
H	 3.147301	 2.881892	 3.175380
C	 2.776347	 4.985309	 4.932901
H	 2.514735	 5.850866	 2.982371
H	 4.102546	 5.189008	 3.253012
C	 3.192040	 6.278413	 5.633460
H	 1.717972	 4.804408	 5.108288
H	 3.306854	 4.146927	 5.379508
H	 2.990870	 6.231069	 6.699244
H	 2.652774	 7.132145	 5.232799
H	 4.253770	 6.469821	 5.505530
C	 4.728119	 -1.109107	 -0.004993
H	 4.882018	 -1.033965	 -1.071845
H	 5.068212	 -2.067527	 0.355250
H	 5.265056	 -0.311663	 0.488280

1 2 4 26 F
