%nprocshared=1
%mem=2GB
#HF/6-31G* nosymm scf=tight opt=ModRedundant

Mol

0 1
O	 -0.758361	 -2.798692	 -1.073585
C	 -0.688720	 -1.709322	 -1.556140
C	 -0.889235	 -0.467034	 -0.705952
C	 -0.367682	 -1.508670	 -3.020397
C	 0.379448	 -0.143569	 0.099626
H	 -1.710035	 -0.663645	 -0.024823
H	 -1.161032	 0.381582	 -1.327243
C	 1.631333	 -0.777471	 -0.511575
H	 0.482768	 0.934507	 0.149241
H	 0.263088	 -0.495696	 1.123449
C	 2.915987	 -0.544314	 0.291766
H	 1.766672	 -0.399098	 -1.523130
H	 1.471257	 -1.849544	 -0.605828
C	 3.373361	 0.914346	 0.347591
H	 3.708709	 -1.142521	 -0.150311
H	 2.780642	 -0.921148	 1.303579
H	 3.506512	 1.320010	 -0.651625
H	 4.322697	 0.999599	 0.867103
H	 2.660624	 1.545032	 0.868198
H	 -1.227171	 -1.077569	 -3.527048
H	 -0.119124	 -2.456014	 -3.478154
H	 0.457357	 -0.812595	 -3.141207

6 3 5 8 F
