%nprocshared=1
%mem=2GB
#HF/6-31G* nosymm scf=tight 

Mol

0 1
O	 3.225979	 0.970355	 -0.599647
C	 2.701189	 0.057885	 -0.047330
C	 1.245376	 -0.013843	 0.345420
O	 3.347903	 -1.046386	 0.304773
C	 0.455112	 1.231400	 -0.050772
H	 0.838542	 -0.913825	 -0.103701
H	 1.208210	 -0.175333	 1.419774
C	 -0.998893	 1.219485	 0.433193
H	 0.482531	 1.345121	 -1.130325
H	 0.957290	 2.103070	 0.354729
C	 -2.008461	 0.654718	 -0.570262
H	 -1.282354	 2.241629	 0.673179
H	 -1.065991	 0.661301	 1.365898
C	 -3.455286	 0.765873	 -0.085140
H	 -1.905227	 1.182613	 -1.517093
H	 -1.786850	 -0.389823	 -0.777130
C	 -4.472525	 0.199853	 -1.077600
H	 -3.689487	 1.810707	 0.111600
H	 -3.556691	 0.247300	 0.866963
C	 -5.915190	 0.318184	 -0.587278
H	 -4.371880	 0.716256	 -2.029882
H	 -4.242678	 -0.845657	 -1.272175
H	 -6.612201	 -0.091348	 -1.311892
H	 -6.187353	 1.355974	 -0.416643
H	 -6.056894	 -0.217482	 0.347203
C	 4.728119	 -1.109107	 -0.004993
H	 4.882018	 -1.033965	 -1.071845
H	 5.068212	 -2.067527	 0.355250
H	 5.265056	 -0.311663	 0.488280

21 17 14 11 F
17 14 11 15 F
15 11 8 5 F
6 3 5 9 F
2 4 26 27 F
1 2 4 26 F
6 3 2 1 F
