%nprocshared=1
%mem=2GB
#HF/6-31G* nosymm scf=tight 

Mol

0 1
O	 0.448130	 1.153082	 -0.665756
C	 0.486307	 0.169203	 0.000779
C	 1.608116	 -0.841643	 0.000302
O	 -0.473052	 -0.176598	 0.847926
C	 2.990107	 -0.200498	 -0.000684
H	 1.468623	 -1.481519	 -0.865924
H	 1.469683	 -1.481289	 0.866878
H	 3.129736	 0.423364	 -0.875135
H	 3.757882	 -0.966877	 -0.001197
H	 3.130964	 0.423383	 0.873533
C	 -1.600225	 0.686968	 0.953454
C	 -2.543248	 0.080045	 1.970638
H	 -2.065906	 0.779104	 -0.018264
H	 -1.264548	 1.669568	 1.255794
H	 -2.865949	 -0.905833	 1.655891
H	 -3.420409	 0.709088	 2.082631
H	 -2.060315	 -0.010486	 2.936991

2 4 11 13 F
11 4 2 3 F
