%nprocshared=4
%mem=2GB
#HF/cc-pVTZ nosymm scf=tight opt=ModRedundant

Mol

0 1
H	 -0.890513	 2.406703	 0.396520
C	 -0.775000	 1.356832	 0.228108
C	 -1.901098	 0.499056	 0.015321
C	 0.438484	 0.799917	 0.209820
H	 -2.890702	 0.915907	 0.024049
C	 -1.728683	 -0.809949	 -0.192901
H	 1.329389	 1.376566	 0.361162
N	 0.640204	 -0.530428	 -0.000115
H	 -2.546891	 -1.480817	 -0.355479
C	 -0.404154	 -1.413670	 -0.212317
C	 2.006991	 -1.033007	 -0.000020
O	 -0.208720	 -2.584262	 -0.396060
H	 2.182444	 -1.636914	 -0.880881
H	 2.678769	 -0.195442	 -0.002236
H	 2.183828	 -1.633244	 0.883082

10 8 11 13 F
