%nprocshared=4
%mem=2GB
#HF/cc-pVTZ nosymm scf=tight opt=ModRedundant

Mol

0 1
O	 -4.741559	 3.677983	 3.374923
C	 -3.562142	 3.759984	 3.486103
C	 -2.630085	 2.634875	 3.084568
C	 -2.907686	 5.004973	 4.041002
C	 -2.930863	 2.021940	 1.724174
H	 -1.614819	 3.023858	 3.116108
H	 -2.673335	 1.879345	 3.865793
C	 -2.635270	 0.525450	 1.676691
H	 -2.350868	 2.536309	 0.966451
H	 -3.970990	 2.200119	 1.476137
C	 -2.932431	 -0.101464	 0.317646
H	 -1.591078	 0.354122	 1.928848
H	 -3.218877	 0.016360	 2.440557
C	 -2.227027	 0.597687	 -0.840944
H	 -4.005637	 -0.088395	 0.143951
H	 -2.641225	 -1.148858	 0.334761
C	 -2.851283	 1.942233	 -1.199122
H	 -1.180072	 0.743108	 -0.588599
H	 -2.242157	 -0.049696	 -1.713632
H	 -2.820169	 2.624877	 -0.356466
H	 -2.327581	 2.411563	 -2.024038
H	 -3.890001	 1.826190	 -1.490056
H	 -2.221465	 5.423139	 3.312795
H	 -3.662109	 5.735040	 4.290482
H	 -2.329392	 4.760820	 4.925313

9 5 3 6 F
