%nprocshared=1
%mem=2GB
#HF/6-31G* nosymm scf=tight 

Mol

0 1
H	 1.133904	 -1.163084	 0.500809
O	 1.306321	 -0.606375	 -0.246319
C	 0.709265	 0.639550	 -0.033818
C	 -0.793441	 0.596080	 0.058728
H	 1.004705	 1.263007	 -0.870011
H	 1.108753	 1.112234	 0.862845
C	 -1.530462	 -0.493172	 -0.025500
H	 -1.268471	 1.554324	 0.202247
H	 -1.092586	 -1.461565	 -0.186463
H	 -2.602122	 -0.450675	 0.050101

5 3 2 1 F
3 4 7 9 F
