%nprocshared=4
%mem=2GB
#HF/cc-pVTZ nosymm scf=tight opt=ModRedundant

Mol

0 1
H	 1.243627	 -2.262415	 0.354384
C	 0.281206	 -1.784499	 0.426316
O	 0.462329	 -0.453336	 -0.000137
H	 -0.058567	 -1.821973	 1.453628
H	 -0.422978	 -2.305395	 -0.210105
C	 -0.590565	 0.341382	 0.000062
O	 -1.693898	 -0.053880	 0.000252
H	 -0.340426	 1.403822	 0.000200

2 3 6 7 F
