%nprocshared=4
%mem=2GB
#HF/cc-pVTZ nosymm scf=tight opt=ModRedundant

Mol

0 1
H	 -3.901199	 -2.491878	 0.964142
C	 -3.260909	 -1.640428	 0.857509
C	 -2.053165	 -1.798355	 0.374022
H	 -3.628329	 -0.676235	 1.149285
O	 -1.189946	 -0.765863	 0.237511
H	 -1.677811	 -2.758662	 0.070628
C	 0.026572	 -0.995256	 -0.379403
C	 1.057223	 0.049888	 -0.004615
H	 -0.054361	 -1.010670	 -1.459674
H	 0.397526	 -1.952058	 -0.044198
F	 2.203233	 -0.234060	 -0.590375
F	 0.698147	 1.254887	 -0.392621
F	 1.266440	 0.094219	 1.288722

3 5 7 9 F
