%nprocshared=1
%mem=2GB
#HF/6-31G* nosymm scf=tight opt=ModRedundant

Mol

0 1
H	 2.465338	 -2.224223	 0.000000
O	 2.784187	 -1.332015	 0.000000
C	 1.765313	 -0.449364	 0.000000
C	 0.473209	 -0.965514	 0.000000
C	 1.965132	 0.917460	 -0.000000
H	 0.344151	 -2.031441	 -0.000000
C	 -0.611459	 -0.113128	 -0.000000
H	 2.949466	 1.342445	 -0.000000
C	 0.853481	 1.744533	 -0.000000
H	 -1.605527	 -0.520172	 -0.000000
C	 -0.436845	 1.264316	 -0.000000
N	 1.070457	 3.189666	 -0.000000
H	 -1.268272	 1.938210	 -0.000000
O	 2.198822	 3.580592	 -0.000000
O	 0.108416	 3.894465	 -0.000000

4 3 2 1 F
