%nprocshared=1
%mem=2GB
#HF/6-31G* nosymm scf=tight 

Mol

0 1
O	 2.926510	 -2.604422	 -1.210166
C	 2.540955	 -1.851961	 -0.374577
C	 1.105146	 -1.676631	 0.057281
O	 3.347903	 -1.046386	 0.304773
C	 0.138086	 -2.593183	 -0.688938
H	 1.073338	 -1.838354	 1.129673
H	 0.847978	 -0.631175	 -0.093002
C	 -1.334278	 -2.353989	 -0.337617
H	 0.400017	 -3.628230	 -0.490980
H	 0.277030	 -2.448007	 -1.754790
C	 -1.718770	 -2.702237	 1.103216
H	 -1.942934	 -2.950347	 -1.013352
H	 -1.590800	 -1.314865	 -0.538683
C	 -3.217358	 -2.550982	 1.372206
H	 -1.416880	 -3.726568	 1.316353
H	 -1.171620	 -2.071247	 1.799958
C	 -3.612409	 -2.891321	 2.810342
H	 -3.772100	 -3.189999	 0.687258
H	 -3.521993	 -1.529671	 1.149000
C	 -5.111074	 -2.741418	 3.069638
H	 -3.307819	 -3.911235	 3.035383
H	 -3.062172	 -2.250633	 3.496301
H	 -5.359703	 -2.989434	 4.096905
H	 -5.688259	 -3.395852	 2.422515
H	 -5.440726	 -1.722588	 2.886365
C	 4.728119	 -1.109107	 -0.004993
H	 4.882018	 -1.033965	 -1.071845
H	 5.068212	 -2.067527	 0.355250
H	 5.265056	 -0.311663	 0.488280

21 17 14 11 F
17 14 11 15 F
15 11 8 5 F
6 3 5 9 F
11 8 5 9 F
1 2 4 26 F
6 3 2 1 F
