%nprocshared=4
%mem=2GB
#HF/cc-pVTZ nosymm scf=tight opt=ModRedundant

Mol

0 1
O	 1.816773	 1.332945	 -0.963344
C	 0.781622	 1.719742	 -1.387478
C	 -0.518669	 0.958420	 -1.351787
O	 0.630629	 2.901797	 -1.962250
C	 -0.824290	 0.329213	 -0.000115
H	 -1.301960	 1.647247	 -1.650821
H	 -0.472151	 0.207303	 -2.133516
C	 0.378679	 -0.405972	 0.583311
H	 -1.658661	 -0.354971	 -0.104950
H	 -1.153084	 1.100662	 0.686945
C	 0.669552	 -1.729973	 -0.117319
H	 1.258062	 0.231346	 0.521977
H	 0.212088	 -0.591220	 1.642164
C	 1.872137	 -2.464559	 0.465419
H	 0.837050	 -1.546025	 -1.174799
H	 -0.207539	 -2.367954	 -0.055263
H	 2.773147	 -1.865217	 0.386649
H	 2.050734	 -3.398833	 -0.054169
H	 1.720141	 -2.693999	 1.514937
C	 1.774850	 3.725117	 -2.063383
H	 2.168391	 3.953019	 -1.083894
H	 1.449161	 4.628457	 -2.553025
H	 2.542901	 3.240436	 -2.647673

9 5 3 6 F
