%nprocshared=4
%mem=2GB
#HF/cc-pVTZ nosymm scf=tight opt=ModRedundant

Mol

0 1
H	 0.372786	 -3.063731	 -4.270100
O	 1.311417	 -3.054546	 -4.296892
C	 1.799065	 -1.830421	 -3.814203
C	 1.658666	 -1.673376	 -2.307448
H	 2.845903	 -1.802073	 -4.084955
H	 1.312159	 -1.000761	 -4.323160
C	 0.214485	 -1.611354	 -1.815164
H	 2.174607	 -2.497936	 -1.824682
H	 2.177171	 -0.762872	 -2.016704
C	 -0.796462	 -1.527674	 -2.957888
H	 0.094494	 -0.752698	 -1.163002
H	 0.000766	 -2.493419	 -1.213855
C	 -2.263644	 -1.537508	 -2.524837
H	 -0.600927	 -0.632022	 -3.542526
H	 -0.630627	 -2.367174	 -3.627372
C	 -2.744957	 -2.846354	 -1.901136
H	 -2.412014	 -0.737042	 -1.805276
H	 -2.891246	 -1.294212	 -3.379283
C	 -4.183602	 -2.773651	 -1.395741
H	 -2.088926	 -3.111492	 -1.074822
H	 -2.667817	 -3.654498	 -2.622215
C	 -4.668595	 -4.079925	 -0.775802
H	 -4.266614	 -1.975278	 -0.663425
H	 -4.839272	 -2.500560	 -2.218286
H	 -4.052171	 -4.363952	 0.070712
H	 -5.690798	 -3.993114	 -0.425557
H	 -4.633736	 -4.891627	 -1.495021

10 7 4 8 F
