%nprocshared=1
%mem=2GB
#HF/6-31G* nosymm scf=tight 

Mol

0 1
O	 -2.042549	 -1.228399	 -0.269030
C	 -1.653912	 -0.146171	 0.050137
C	 -0.332303	 0.024011	 0.778412
C	 -2.438579	 1.106236	 -0.272369
C	 0.845713	 -0.001731	 -0.208243
H	 -0.323783	 0.953829	 1.340327
H	 -0.235459	 -0.796807	 1.480410
C	 0.647080	 -1.015296	 -1.336188
H	 1.766538	 -0.233755	 0.324044
H	 0.969683	 0.993158	 -0.625340
C	 1.812967	 -1.036670	 -2.323841
H	 0.514356	 -2.007874	 -0.911217
H	 -0.273085	 -0.783564	 -1.867378
H	 2.743123	 -1.299143	 -1.827886
H	 1.949477	 -0.065107	 -2.789537
H	 1.643517	 -1.761609	 -3.113637
H	 -3.277823	 0.863061	 -0.908988
H	 -1.806773	 1.843019	 -0.759671
H	 -2.802853	 1.554979	 0.648059

11 8 5 9 F
5 3 2 4 F
