%nprocshared=4
%mem=2GB
#HF/6-31G* nosymm scf=tight opt=ModRedundant

Mol

0 1
O	 1.214711	 1.306902	 -0.000018
C	 1.122059	 0.121804	 -0.000188
C	 -0.170150	 -0.657997	 -0.000612
O	 2.172624	 -0.688929	 0.000216
C	 -1.412532	 0.227344	 -0.000452
H	 -0.153702	 -1.313099	 -0.867402
H	 -0.153924	 -1.313811	 0.865644
C	 -2.701403	 -0.579464	 -0.165494
H	 -1.331445	 0.958816	 -0.798499
H	 -1.448843	 0.793708	 0.924976
C	 -3.951232	 0.299700	 -0.165132
H	 -2.659437	 -1.145623	 -1.093815
H	 -2.776343	 -1.312546	 0.635160
H	 -3.922380	 1.021445	 -0.976246
H	 -4.850543	 -0.296484	 -0.283799
H	 -4.040447	 0.852842	 0.765306
C	 3.452279	 -0.082609	 0.000533
H	 3.583069	 0.529321	 -0.880332
H	 4.163299	 -0.894027	 0.001117
H	 3.582335	 0.529955	 0.881077

9 5 3 6 F
