%nprocshared=1
%mem=2GB
#HF/6-31G* nosymm scf=tight opt=ModRedundant

Mol

0 1
O	 1.439763	 0.933529	 0.808025
C	 1.122059	 0.121804	 -0.000188
C	 -0.170150	 -0.657997	 -0.000612
O	 1.884790	 -0.211395	 -1.033724
C	 -1.412532	 0.227344	 -0.000452
H	 -0.153702	 -1.313099	 -0.867402
H	 -0.153924	 -1.313811	 0.865644
C	 -2.706999	 -0.587347	 -0.000541
H	 -1.388000	 0.879466	 -0.868000
H	 -1.387972	 0.879138	 0.867341
C	 -3.956778	 0.291888	 0.000910
H	 -2.726114	 -1.239230	 -0.871609
H	 -2.725217	 -1.240844	 0.869333
H	 -3.985213	 0.933254	 -0.875158
H	 -4.860123	 -0.309979	 0.000519
H	 -3.984618	 0.931166	 0.878514
C	 3.131343	 0.449841	 -1.152091
H	 2.987835	 1.515887	 -1.254264
H	 3.595345	 0.048240	 -2.039428
H	 3.748139	 0.255836	 -0.286393

1 2 3 6 F
