%nprocshared=4
%mem=2GB
#HF/cc-pVTZ nosymm scf=tight opt=ModRedundant

Mol

0 1
H	 0.559871	 -3.346639	 -0.734483
O	 0.921754	 -2.606501	 -0.270875
C	 0.116995	 -1.562917	 -0.451782
C	 0.626018	 -0.337582	 0.258241
O	 -0.869001	 -1.635093	 -1.100198
C	 -0.267326	 0.883135	 0.076490
H	 0.741926	 -0.606795	 1.301289
H	 1.628560	 -0.149021	 -0.112955
C	 -1.726822	 0.642622	 0.463839
H	 -0.210803	 1.217591	 -0.953497
H	 0.129920	 1.693110	 0.675679
C	 -2.720118	 0.682017	 -0.696269
H	 -2.011698	 1.400162	 1.187878
H	 -1.812790	 -0.312140	 0.978122
C	 -4.167783	 0.541011	 -0.237075
H	 -2.602745	 1.618966	 -1.234214
H	 -2.498459	 -0.108198	 -1.406470
H	 -4.851223	 0.574228	 -1.077604
H	 -4.441489	 1.339575	 0.444157
H	 -4.324271	 -0.400327	 0.279210

12 9 6 10 F
