%nprocshared=4
%mem=2GB
#HF/cc-pVTZ nosymm scf=tight opt=ModRedundant

Mol

0 1
H	 3.300163	 3.358746	 -3.365494
C	 3.496406	 2.652528	 -2.566988
C	 2.282658	 2.498235	 -1.656860
H	 3.763773	 1.704957	 -3.021784
H	 4.359531	 3.009479	 -2.014358
C	 2.526420	 1.517437	 -0.512051
H	 1.435184	 2.164478	 -2.244510
H	 2.016506	 3.469334	 -1.245819
C	 1.330446	 1.347420	 0.419414
H	 2.799378	 0.550202	 -0.915509
H	 3.370561	 1.863854	 0.077190
C	 0.166485	 0.574257	 -0.177158
H	 1.631320	 0.800836	 1.309632
H	 0.972679	 2.310114	 0.772599
C	 -1.180025	 0.697761	 0.509157
O	 0.302522	 -0.119649	 -1.132806
C	 -2.285431	 -0.137488	 -0.145671
H	 -1.447360	 1.745713	 0.496200
H	 -1.065514	 0.394096	 1.546399
C	 -3.646545	 0.082747	 0.508954
H	 -2.348635	 0.118247	 -1.199806
H	 -2.034895	 -1.192387	 -0.096473
C	 -4.757412	 -0.737227	 -0.138149
H	 -3.900211	 1.137405	 0.459735
H	 -3.580878	 -0.166775	 1.564416
H	 -4.867876	 -0.486707	 -1.187777
H	 -4.549650	 -1.800049	 -0.072540
H	 -5.709585	 -0.556397	 0.346597

16 12 15 17 F
