%nprocshared=1
%mem=2GB
#HF/6-31G* nosymm scf=tight 

Mol

0 1
O	 3.225979	 0.970355	 -0.599647
C	 2.701189	 0.057885	 -0.047330
C	 1.245376	 -0.013843	 0.345420
O	 3.347903	 -1.046386	 0.304773
C	 0.455112	 1.231400	 -0.050772
H	 0.838542	 -0.913825	 -0.103701
H	 1.208210	 -0.175333	 1.419774
C	 -0.998893	 1.219485	 0.433193
H	 0.482531	 1.345121	 -1.130325
H	 0.957290	 2.103070	 0.354729
C	 -1.883438	 0.145884	 -0.207175
H	 -1.431207	 2.195402	 0.224832
H	 -1.019646	 1.105716	 1.516076
C	 -3.304279	 0.637326	 -0.491244
H	 -1.425423	 -0.186808	 -1.137421
H	 -1.936772	 -0.728848	 0.437009
C	 -4.198744	 -0.428797	 -1.126417
H	 -3.260358	 1.505424	 -1.146767
H	 -3.759027	 0.980155	 0.436858
C	 -5.614758	 0.071162	 -1.410396
H	 -3.745299	 -0.773208	 -2.053461
H	 -4.247391	 -1.295595	 -0.470615
H	 -6.224198	 -0.706648	 -1.860066
H	 -5.602505	 0.917065	 -2.091934
H	 -6.108145	 0.391198	 -0.496931
C	 4.728119	 -1.109107	 -0.004993
H	 4.882018	 -1.033965	 -1.071845
H	 5.068212	 -2.067527	 0.355250
H	 5.265056	 -0.311663	 0.488280

21 17 14 11 F
17 14 11 15 F
6 3 5 9 F
11 8 5 9 F
2 4 26 27 F
1 2 4 26 F
6 3 2 1 F
