%nprocshared=1
%mem=2GB
#HF/6-31G* nosymm scf=tight 

Mol

0 1
O	 3.118491	 -3.180076	 -0.238203
C	 2.643482	 -2.159833	 0.144589
C	 1.194291	 -1.945655	 0.508954
O	 3.347903	 -1.046386	 0.304773
C	 0.344038	 -3.204506	 0.352496
H	 1.174434	 -1.564989	 1.524774
H	 0.819400	 -1.140073	 -0.117297
C	 -1.148302	 -2.978148	 0.617409
H	 0.722156	 -3.977281	 1.015041
H	 0.472179	 -3.585212	 -0.655008
C	 -1.499373	 -2.615554	 2.063225
H	 -1.679874	 -3.888044	 0.348624
H	 -1.521497	 -2.202801	 -0.050102
C	 -3.007106	 -2.508327	 2.300385
H	 -1.082894	 -3.367487	 2.731776
H	 -1.033021	 -1.671763	 2.336623
C	 -3.369559	 -2.141293	 3.740540
H	 -3.480150	 -3.454094	 2.041565
H	 -3.425898	 -1.764215	 1.624657
C	 -4.877149	 -2.039982	 3.969903
H	 -2.950983	 -2.883303	 4.417192
H	 -2.901188	 -1.194051	 3.999659
H	 -5.102152	 -1.778585	 4.999297
H	 -5.370954	 -2.982946	 3.752715
H	 -5.320763	 -1.281096	 3.331488
C	 4.728119	 -1.109107	 -0.004993
H	 4.882018	 -1.033965	 -1.071845
H	 5.068212	 -2.067527	 0.355250
H	 5.265056	 -0.311663	 0.488280

21 17 14 11 F
17 14 11 15 F
15 11 8 5 F
6 3 5 9 F
11 8 5 9 F
1 2 4 26 F
6 3 2 1 F
