%nprocshared=4
%mem=2GB
#HF/cc-pVTZ nosymm scf=tight opt=ModRedundant

Mol

0 1
O	 0.395927	 1.296676	 -0.000076
C	 0.503051	 0.114301	 -0.000074
C	 -0.701422	 -0.805636	 -0.000109
C	 1.858118	 -0.556123	 0.000212
C	 -1.947845	 -0.195026	 -0.621129
H	 -0.417044	 -1.717808	 -0.518286
H	 -0.886678	 -1.103025	 1.028813
H	 -1.772518	 0.079717	 -1.652635
H	 -2.768576	 -0.901606	 -0.589497
H	 -2.246332	 0.699949	 -0.091829
H	 1.961106	 -1.191101	 -0.872843
H	 2.636688	 0.191085	 -0.000109
H	 1.961070	 -1.190284	 0.873873

6 3 2 1 F
