%nprocshared=4
%mem=2GB
#HF/cc-pVTZ nosymm scf=tight opt=ModRedundant

Mol

0 1
O	 3.219313	 0.959291	 -0.614106
C	 2.698710	 0.058177	 -0.050237
C	 1.246364	 -0.005813	 0.348416
O	 3.344101	 -1.038700	 0.312317
C	 0.453207	 1.232821	 -0.049003
H	 0.839270	 -0.907818	 -0.092281
H	 1.216683	 -0.160521	 1.422434
C	 -0.998367	 1.217982	 0.432195
H	 0.481498	 1.345443	 -1.127236
H	 0.951413	 2.105557	 0.354893
C	 -1.882951	 0.151251	 -0.211235
H	 -1.429490	 2.193659	 0.228843
H	 -1.019755	 1.099323	 1.513279
C	 -2.439408	 -0.850198	 0.797350
H	 -2.708289	 0.636598	 -0.727110
H	 -1.324985	 -0.389718	 -0.969893
C	 -3.319871	 -1.924244	 0.164908
H	 -3.011903	 -0.317865	 1.553136
H	 -1.614835	 -1.327338	 1.322023
C	 -3.873413	 -2.919753	 1.178973
H	 -4.144371	 -1.449003	 -0.359559
H	 -2.748291	 -2.459107	 -0.588800
H	 -4.492998	 -3.667737	 0.697705
H	 -4.479707	 -2.419950	 1.927113
H	 -3.072570	 -3.437246	 1.696718
C	 4.720529	 -1.114346	 0.001449
H	 4.874321	 -1.055557	 -1.065852
H	 5.057824	 -2.067950	 0.373977
H	 5.264321	 -0.313596	 0.480350

15 11 8 5 F
