%nprocshared=1
%mem=2GB
#HF/6-31G* nosymm scf=tight opt=ModRedundant

Mol

0 1
H	 -0.949262	 6.459695	 3.505282
C	 -1.815057	 5.805968	 3.465749
C	 -1.631493	 4.708963	 2.417866
H	 -1.953352	 5.380063	 4.455103
H	 -2.683739	 6.420369	 3.245061
C	 -2.838586	 3.772356	 2.331209
H	 -0.742791	 4.132801	 2.654185
H	 -1.460599	 5.166456	 1.444630
C	 -2.691422	 2.674330	 1.277667
H	 -3.012083	 3.312313	 3.297595
H	 -3.725137	 4.356384	 2.094607
C	 -1.678750	 1.595874	 1.633574
H	 -3.645849	 2.169099	 1.137732
H	 -2.438027	 3.097396	 0.308140
C	 -1.181045	 0.701995	 0.511084
O	 -1.298661	 1.440071	 2.755029
C	 -2.285934	 -0.139295	 -0.145128
H	 -0.420201	 0.056796	 0.933635
H	 -0.707309	 1.326427	 -0.244127
C	 -3.651768	 0.085446	 0.506485
H	 -2.346596	 0.110469	 -1.202272
H	 -2.034737	 -1.195320	 -0.088721
C	 -4.759797	 -0.746382	 -0.137905
H	 -3.908762	 1.140117	 0.445781
H	 -3.588286	 -0.154158	 1.565709
H	 -4.868882	 -0.505166	 -1.191300
H	 -4.548009	 -1.809175	 -0.062213
H	 -5.715422	 -0.564821	 0.343442

12 15 17 21 F
