%nprocshared=4
%mem=2GB
#HF/cc-pVTZ nosymm scf=tight opt=ModRedundant

Mol

0 1
O	 1.603353	 0.546322	 2.923581
C	 1.341326	 -0.485430	 2.396076
C	 0.106177	 -0.628719	 1.528941
C	 2.229047	 -1.698230	 2.543846
C	 0.376695	 -0.140025	 0.100361
H	 -0.678460	 -0.030765	 1.974931
H	 -0.221873	 -1.662575	 1.509214
C	 1.630207	 -0.772146	 -0.501001
H	 -0.490964	 -0.366977	 -0.506177
H	 0.486509	 0.941748	 0.097665
C	 2.907848	 -0.545876	 0.309149
H	 1.772784	 -0.391628	 -1.509394
H	 1.468529	 -1.842059	 -0.599744
C	 3.373802	 0.906639	 0.372125
H	 3.699140	 -1.146831	 -0.127906
H	 2.764321	 -0.923458	 1.318191
H	 3.519798	 1.311927	 -0.623875
H	 4.316899	 0.983758	 0.900700
H	 2.661122	 1.540651	 0.885346
H	 1.704122	 -2.457034	 3.115396
H	 3.142148	 -1.431079	 3.053205
H	 2.455597	 -2.127376	 1.574260

3 5 8 12 F
