%nprocshared=4
%mem=2GB
#HF/cc-pVTZ nosymm scf=tight opt=ModRedundant

Mol

0 1
H	 3.694297	 -0.673900	 3.242602
C	 3.073499	 -1.059242	 2.442459
C	 1.792235	 -0.244905	 2.301500
H	 3.658090	 -1.030638	 1.528964
H	 2.858288	 -2.099304	 2.663761
C	 0.888791	 -0.753025	 1.187691
H	 2.030733	 0.794959	 2.107675
H	 1.246686	 -0.266804	 3.241964
N	 -0.305983	 0.053814	 1.064149
H	 1.423912	 -0.708462	 0.243854
H	 0.658002	 -1.808316	 1.361417
C	 -1.215959	 -0.382435	 0.027143
H	 -0.783760	 0.084875	 1.940552
C	 -2.451944	 0.502410	 -0.038737
H	 -0.691090	 -0.336063	 -0.922351
H	 -1.522898	 -1.424315	 0.158871
C	 -3.752217	 -0.292550	 0.005776
H	 -2.407325	 1.093801	 -0.946480
H	 -2.431979	 1.206234	 0.790023
H	 -3.817783	 -0.982946	 -0.828547
H	 -4.612613	 0.364348	 -0.042306
H	 -3.830160	 -0.871666	 0.919868

15 12 14 18 F
