%nprocshared=1
%mem=2GB
#HF/6-31G* nosymm scf=tight 
prop=(read,field)

Mol

0 1
H	 -1.790779	 0.234962	 0.875173
C	 -1.257821	 -0.126946	 0.000076
C	 0.146336	 0.412178	 -0.000488
H	 -1.791851	 0.235676	 -0.874013
H	 -1.244200	 -1.208418	 -0.000300
O	 1.123976	 -0.262390	 0.000251
H	 0.228944	 1.504255	 0.000067

@grid.dat /N
