%nprocshared=1
%mem=2GB
#HF/6-31G* nosymm scf=tight 

Mol

0 1
H	 -3.787928	 -0.291921	 -1.659066
C	 -2.772765	 -0.167926	 -1.326121
C	 -2.320808	 1.084189	 -0.937417
C	 -1.920693	 -1.260346	 -1.287057
H	 -2.982660	 1.930577	 -0.968193
C	 -1.015379	 1.242835	 -0.509436
H	 -2.272812	 -2.230189	 -1.588757
C	 -0.613535	 -1.103909	 -0.858996
H	 -0.648453	 2.204249	 -0.204937
C	 -0.157521	 0.149698	 -0.468760
H	 0.049286	 -1.946510	 -0.827166
C	 1.239129	 0.373821	 0.000060
O	 1.970282	 -0.730723	 0.000018
O	 1.664614	 1.432587	 0.341875
C	 3.377318	 -0.566646	 -0.000065
H	 3.695437	 -0.028981	 -0.881264
H	 3.789299	 -1.563704	 0.000236
H	 3.695516	 -0.028316	 0.880770

12 13 15 16 F
13 12 10 6 F
