%nprocshared=4
%mem=2GB
#HF/cc-pVTZ nosymm scf=tight opt=ModRedundant

Mol

0 1
O	 -0.427360	 -1.392182	 -0.665010
C	 0.595354	 -1.297218	 -0.076775
C	 1.246364	 -0.005813	 0.348416
O	 1.317782	 -2.342573	 0.292610
C	 0.453207	 1.232821	 -0.049003
H	 1.394842	 -0.066917	 1.419758
H	 2.239873	 0.009843	 -0.088647
C	 -0.998367	 1.217982	 0.432195
H	 0.481498	 1.345443	 -1.127236
H	 0.951413	 2.105557	 0.354893
C	 -1.258473	 1.982803	 1.729037
H	 -1.293948	 0.182994	 0.575713
H	 -1.643245	 1.608794	 -0.351819
C	 -0.646090	 3.380935	 1.730208
H	 -2.331646	 2.061422	 1.887119
H	 -0.865292	 1.428012	 2.575885
C	 0.879677	 3.376131	 1.758244
H	 -1.017769	 3.934776	 2.588959
H	 -0.985650	 3.922472	 0.850264
C	 1.483902	 4.776374	 1.761084
H	 1.220470	 2.835535	 2.637071
H	 1.252821	 2.825324	 0.899040
H	 2.566976	 4.737151	 1.780970
H	 1.157682	 5.341534	 2.627851
H	 1.189440	 5.331513	 0.876595
C	 0.824678	 -3.623490	 -0.043565
H	 -0.139967	 -3.792406	 0.411591
H	 1.544729	 -4.329140	 0.337866
H	 0.731980	 -3.727573	 -1.114467

11 8 5 9 F
