%nprocshared=4
%mem=2GB
#HF/cc-pVTZ nosymm scf=tight opt=ModRedundant

Mol

0 1
H	 -3.436473	 1.252944	 -1.023892
O	 -3.458596	 0.315260	 -0.960865
C	 -3.176635	 -0.080824	 0.355601
C	 -1.763371	 0.265266	 0.799691
H	 -3.321825	 -1.153438	 0.379502
H	 -3.895468	 0.357385	 1.043382
C	 -0.673390	 -0.426948	 -0.013392
H	 -1.631049	 1.344913	 0.747560
H	 -1.664587	 -0.001624	 1.849167
C	 -0.131766	 -1.686677	 0.657203
H	 0.138749	 0.269908	 -0.188702
H	 -1.071528	 -0.682890	 -0.992415
C	 0.955199	 -2.377408	 -0.164043
H	 0.254138	 -1.425389	 1.637865
H	 -0.948602	 -2.385115	 0.826968
C	 1.473474	 -3.689221	 0.427889
H	 1.789330	 -1.693264	 -0.301968
H	 0.563481	 -2.579481	 -1.157192
C	 2.230516	 -3.539990	 1.745372
H	 2.130514	 -4.157264	 -0.298753
H	 0.640541	 -4.373580	 0.566792
H	 3.066415	 -2.855946	 1.638434
H	 2.626425	 -4.495044	 2.071514
H	 1.595223	 -3.164109	 2.538292

11 7 4 3 F
