%nprocshared=4
%mem=2GB
#HF/cc-pVTZ nosymm scf=tight opt=ModRedundant

Mol

0 1
H	 -7.508816	 4.682888	 0.292630
C	 -7.041999	 3.723549	 0.554616
C	 -5.638994	 3.826434	 1.088362
O	 -7.637303	 2.714193	 0.399308
C	 -4.684214	 2.816878	 0.444261
H	 -5.293564	 4.843440	 0.955279
H	 -5.698391	 3.630659	 2.156748
C	 -4.416440	 3.084437	 -1.035230
H	 -3.746724	 2.835640	 0.989331
H	 -5.084735	 1.813584	 0.567457
C	 -5.641798	 2.853761	 -1.915610
H	 -3.604700	 2.444156	 -1.370230
H	 -4.067344	 4.105267	 -1.167388
C	 -6.900381	 3.527547	 -1.372262
H	 -5.428726	 3.215671	 -2.916592
H	 -5.820642	 1.784797	 -2.008501
C	 -7.827821	 4.111512	 -2.439380
H	 -6.614724	 4.314215	 -0.677756
H	 -7.459838	 2.800038	 -0.790848
C	 -7.244121	 5.287623	 -3.218572
H	 -8.743922	 4.435874	 -1.955707
H	 -8.114795	 3.326049	 -3.133643
H	 -6.941812	 6.086551	 -2.549005
H	 -6.377675	 4.999038	 -3.801388
H	 -7.976863	 5.694192	 -3.906144

8 11 14 18 F
