%nprocshared=1
%mem=2GB
#HF/6-31G* nosymm scf=tight opt=ModRedundant

Mol

0 1
O	 -1.276010	 1.052711	 -0.768302
C	 -1.204840	 0.067374	 -0.106123
C	 -2.388195	 -0.672128	 0.458071
O	 -0.067104	 -0.527208	 0.221609
H	 -2.388023	 -1.694060	 0.097175
H	 -3.300579	 -0.174919	 0.164318
H	 -2.315377	 -0.706351	 1.539059
C	 1.050447	 -0.434088	 -0.673006
C	 1.912372	 -1.652074	 -0.391613
C	 1.782680	 0.879184	 -0.445414
H	 0.670492	 -0.470210	 -1.683371
H	 1.349077	 -2.564664	 -0.550122
H	 2.773196	 -1.661442	 -1.052089
H	 2.266565	 -1.642603	 0.633624
H	 2.643152	 0.945551	 -1.103593
H	 1.134162	 1.721121	 -0.651673
H	 2.130930	 0.946279	 0.580367

8 4 2 1 F
