%nprocshared=4
%mem=2GB
#HF/cc-pVTZ nosymm scf=tight opt=ModRedundant

Mol

0 1
H	 -3.849312	 -0.233765	 4.573925
O	 -3.274885	 -0.297855	 5.314031
C	 -2.503567	 -1.467183	 5.230291
C	 -1.420046	 -1.403945	 4.164144
H	 -2.047144	 -1.590266	 6.203177
H	 -3.142558	 -2.332056	 5.062552
C	 -1.950726	 -1.317510	 2.734893
H	 -0.782468	 -0.549365	 4.369923
H	 -0.800288	 -2.291754	 4.264604
C	 -0.835316	 -1.289097	 1.690916
H	 -2.563608	 -0.428118	 2.633109
H	 -2.600187	 -2.169216	 2.539744
C	 -1.311023	 -1.277304	 0.237018
H	 -0.202370	 -0.423002	 1.868362
H	 -0.202870	 -2.160215	 1.837998
C	 -2.041121	 -0.006551	 -0.194127
H	 -0.445723	 -1.413363	 -0.405843
H	 -1.953416	 -2.137663	 0.063038
C	 -3.489218	 0.042606	 0.286507
H	 -2.022185	 0.066287	 -1.279394
H	 -1.518764	 0.869305	 0.178730
C	 -4.219984	 1.311773	 -0.139038
H	 -4.022855	 -0.824300	 -0.093339
H	 -3.510372	 -0.038577	 1.370031
H	 -4.244251	 1.405725	 -1.219696
H	 -5.244345	 1.313233	 0.215630
H	 -3.732090	 2.196311	 0.257073

10 13 16 20 F
