%nprocshared=4
%mem=2GB
#HF/cc-pVTZ nosymm scf=tight opt=ModRedundant

Mol

0 1
H	 -1.752232	 -2.214755	 -0.011938
C	 -1.343852	 -1.221619	 -0.018179
N	 -0.058800	 -1.097635	 -0.261688
C	 -2.148159	 -0.124236	 0.219734
C	 0.449026	 0.119242	 -0.273393
H	 -3.196988	 -0.237571	 0.417076
N	 -1.655094	 1.094230	 0.209506
C	 -0.370318	 1.215445	 -0.035100
C	 1.924033	 0.265863	 -0.538106
H	 0.033214	 2.210441	 -0.046812
C	 2.242841	 1.442291	 -1.462134
H	 2.425040	 0.408532	 0.411842
H	 2.305125	 -0.653036	 -0.967766
H	 3.313272	 1.536022	 -1.601157
H	 1.871796	 2.367983	 -1.042138
H	 1.787972	 1.307242	 -2.437020

12 9 5 3 F
