%nprocshared=4
%mem=2GB
#HF/cc-pVTZ nosymm scf=tight opt=ModRedundant

Mol

0 1
H	 -0.368304	 0.067620	 2.090637
C	 -0.209556	 -0.484981	 1.189547
C	 -0.208240	 -1.865081	 1.182035
C	 0.000000	 0.179985	 0.000046
H	 -0.369367	 -2.400843	 2.096645
C	 -0.000003	 -2.552036	 -0.000011
N	 0.000000	 1.644631	 0.000076
C	 0.209558	 -0.484932	 -1.189482
H	 -0.000000	 -3.625035	 -0.000032
C	 0.208238	 -1.865032	 -1.182028
O	 1.050559	 2.194174	 -0.000073
O	 -1.050559	 2.194174	 -0.000074
H	 0.368297	 0.067705	 -2.090551
H	 0.369368	 -2.400757	 -2.096659

2 4 7 11 F
