%nprocshared=1
%mem=2GB
#HF/6-31G* nosymm scf=tight opt=ModRedundant

Mol

0 1
O	 1.214711	 1.306902	 -0.000018
C	 1.122059	 0.121804	 -0.000188
C	 -0.170150	 -0.657997	 -0.000612
O	 2.172624	 -0.688929	 0.000216
C	 -1.412532	 0.227344	 -0.000452
H	 -0.153702	 -1.313099	 -0.867402
H	 -0.153924	 -1.313811	 0.865644
C	 -2.705632	 -0.585444	 0.080994
H	 -1.417547	 0.838009	 -0.897987
H	 -1.359476	 0.919131	 0.834484
C	 -3.955359	 0.293864	 0.082977
H	 -2.753355	 -1.277478	 -0.757389
H	 -2.694228	 -1.197377	 0.980704
H	 -4.013588	 0.893426	 -0.820787
H	 -4.857735	 -0.306653	 0.141051
H	 -3.954336	 0.973651	 0.930048
C	 3.452279	 -0.082609	 0.000533
H	 3.583069	 0.529321	 -0.880332
H	 4.163299	 -0.894027	 0.001117
H	 3.582335	 0.529955	 0.881077

9 5 3 6 F
