%nprocshared=1
%mem=2GB
#HF/6-31G* nosymm scf=tight 

Mol

0 1
H	 -3.420663	 1.227371	 -1.044276
O	 -3.452007	 0.283848	 -0.965577
C	 -3.181085	 -0.079926	 0.364119
C	 -1.765924	 0.277073	 0.805136
H	 -3.327791	 -1.152017	 0.410903
H	 -3.905698	 0.375695	 1.036898
C	 -0.677594	 -0.417312	 -0.014550
H	 -1.637766	 1.358238	 0.744969
H	 -1.659588	 0.017670	 1.857098
C	 -1.079574	 -0.648197	 -1.472728
H	 -0.430390	 -1.365899	 0.452122
H	 0.229149	 0.184440	 0.018710
C	 0.017100	 -1.338302	 -2.288294
H	 -1.990702	 -1.241146	 -1.498722
H	 -1.323436	 0.306714	 -1.936712
C	 -0.303753	 -1.511898	 -3.777278
H	 0.230575	 -2.312747	 -1.851737
H	 0.933884	 -0.759307	 -2.198368
C	 -1.467807	 -2.460239	 -4.070591
H	 0.585047	 -1.886161	 -4.279525
H	 -0.511906	 -0.538125	 -4.216187
H	 -1.293022	 -3.439362	 -3.632518
H	 -1.594357	 -2.595889	 -5.140367
H	 -2.406898	 -2.084856	 -3.677704

20 16 13 17 F
17 13 10 7 F
13 10 7 11 F
1 2 3 5 F
7 4 3 2 F
