%nprocshared=4
%mem=2GB
#HF/cc-pVTZ nosymm scf=tight opt=ModRedundant

Mol

0 1
O	 1.311851	 1.571728	 -0.339628
C	 0.781622	 1.719742	 -1.387478
C	 0.197076	 0.619847	 -2.236111
O	 0.630629	 2.901797	 -1.962250
C	 -0.669651	 -0.360176	 -1.458510
H	 -0.365014	 1.094485	 -3.033746
H	 1.025712	 0.113384	 -2.720155
C	 -1.764533	 0.340505	 -0.659575
H	 -0.042220	 -0.941325	 -0.792275
H	 -1.113453	 -1.069493	 -2.147858
C	 -1.236039	 1.061377	 0.577157
H	 -2.277999	 1.056085	 -1.297971
H	 -2.514106	 -0.386952	 -0.355955
C	 -2.330196	 1.762097	 1.375419
H	 -0.487981	 1.788879	 0.274986
H	 -0.724411	 0.347307	 1.216298
H	 -2.838276	 2.507729	 0.772823
H	 -1.921486	 2.263258	 2.245205
H	 -3.076370	 1.054710	 1.721919
C	 1.774850	 3.725117	 -2.063383
H	 2.168391	 3.953019	 -1.083894
H	 1.449161	 4.628457	 -2.553025
H	 2.542901	 3.240436	 -2.647673

1 2 4 20 F
