%nprocshared=1
%mem=2GB
#HF/6-31G* nosymm scf=tight opt=ModRedundant

Mol

0 1
H	 2.415009	 -2.868509	 2.173515
C	 2.466884	 -2.185494	 1.331761
C	 1.186125	 -1.360576	 1.212901
H	 3.333077	 -1.546513	 1.478866
H	 2.640955	 -2.776988	 0.437288
C	 1.217350	 -0.386724	 0.039429
H	 1.017075	 -0.797214	 2.125279
H	 0.335505	 -2.030780	 1.100368
N	 0.000003	 0.397874	 -0.023260
H	 2.050942	 0.299097	 0.164880
H	 1.406678	 -0.937037	 -0.888304
C	 -1.217365	 -0.386708	 0.039277
H	 -0.000031	 1.072115	 0.718656
C	 -2.452633	 0.504241	 -0.042481
H	 -1.215291	 -1.074557	 -0.802042
H	 -1.269739	 -1.003477	 0.942735
C	 -3.758029	 -0.289423	 -0.010781
H	 -2.394220	 1.093569	 -0.952170
H	 -2.440793	 1.210787	 0.785871
H	 -3.816659	 -0.981993	 -0.845726
H	 -4.617837	 0.370165	 -0.069296
H	 -3.847478	 -0.867502	 0.904682

10 6 9 12 F
