%nprocshared=1
%mem=2GB
#HF/6-31G* nosymm scf=tight 

Mol

0 1
O	 -2.042549	 -1.228399	 -0.269030
C	 -1.653912	 -0.146171	 0.050137
C	 -0.332303	 0.024011	 0.778412
C	 -2.438579	 1.106236	 -0.272369
C	 0.845713	 -0.001731	 -0.208243
H	 -0.323783	 0.953829	 1.340327
H	 -0.235459	 -0.796807	 1.480410
C	 1.363274	 -1.416765	 -0.470615
H	 1.659306	 0.612342	 0.173940
H	 0.525535	 0.451755	 -1.141505
C	 2.528942	 -1.446198	 -1.458319
H	 1.673557	 -1.868376	 0.469170
H	 0.550208	 -2.030056	 -0.851886
H	 3.371526	 -0.868628	 -1.088837
H	 2.238954	 -1.030322	 -2.418734
H	 2.873010	 -2.461604	 -1.627421
H	 -3.277823	 0.863061	 -0.908988
H	 -1.806773	 1.843019	 -0.759671
H	 -2.802853	 1.554979	 0.648059

11 8 5 9 F
5 3 2 4 F
