%nprocshared=4
%mem=2GB
#HF/cc-pVTZ nosymm scf=tight opt=ModRedundant

Mol

0 1
H	 -3.436473	 1.252944	 -1.023892
O	 -3.458596	 0.315260	 -0.960865
C	 -3.176635	 -0.080824	 0.355601
C	 -1.763371	 0.265266	 0.799691
H	 -3.321825	 -1.153438	 0.379502
H	 -3.895468	 0.357385	 1.043382
C	 -0.673390	 -0.426948	 -0.013392
H	 -1.631049	 1.344913	 0.747560
H	 -1.664587	 -0.001624	 1.849167
C	 0.737842	 -0.043159	 0.423759
H	 -0.806103	 -0.190518	 -1.063345
H	 -0.797221	 -1.503753	 0.074146
C	 1.366549	 -1.065221	 1.368833
H	 1.359182	 0.077456	 -0.458442
H	 0.712516	 0.927794	 0.914132
C	 2.750284	 -0.685821	 1.899099
H	 1.427898	 -2.027770	 0.866255
H	 0.701406	 -1.209115	 2.215886
C	 3.848338	 -0.635868	 0.839417
H	 3.035033	 -1.405880	 2.660157
H	 2.690332	 0.276391	 2.401068
H	 3.927515	 -1.583546	 0.316240
H	 4.811012	 -0.428819	 1.292883
H	 3.664906	 0.135096	 0.100788

13 10 7 11 F
