%nprocshared=4
%mem=2GB
#HF/6-31G* nosymm scf=tight opt=ModRedundant

Mol

0 1
H	 -2.566393	 -0.811513	 1.774526
C	 -2.564112	 -1.327279	 0.816339
O	 -1.320206	 -1.247739	 0.198513
H	 -2.779790	 -2.373844	 0.981650
H	 -3.349082	 -0.900828	 0.193130
C	 -0.906847	 0.051277	 -0.085989
C	 0.494022	 0.017251	 -0.650448
H	 -1.576039	 0.509865	 -0.815080
H	 -0.916850	 0.666045	 0.811766
O	 1.392611	 -0.295398	 0.366430
H	 0.541047	 -0.720480	 -1.448914
H	 0.731715	 0.991856	 -1.078630
C	 2.706965	 -0.449871	 -0.062409
H	 2.756559	 -0.644779	 -1.131878
H	 3.305899	 0.433456	 0.155466
H	 3.125548	 -1.294566	 0.467107

7 10 13 14 F
