%nprocshared=4
%mem=2GB
#HF/cc-pVTZ nosymm scf=tight opt=ModRedundant

Mol

0 1
O	 -2.374409	 1.338660	 -0.336961
C	 -2.104891	 0.204655	 -0.107126
C	 -0.881910	 -0.448129	 -0.720509
C	 -2.949910	 -0.638219	 0.818225
C	 0.280433	 -0.488759	 0.279566
H	 -0.596794	 0.137611	 -1.585222
H	 -1.118483	 -1.453568	 -1.052157
C	 1.533969	 -1.128044	 -0.314124
H	 0.487152	 0.524155	 0.601281
H	 -0.017601	 -1.044172	 1.165564
C	 2.708397	 -1.247931	 0.658631
H	 1.846610	 -0.557794	 -1.185358
H	 1.281606	 -2.121253	 -0.675308
C	 3.303510	 0.084721	 1.106690
H	 3.487335	 -1.834330	 0.181451
H	 2.395024	 -1.815362	 1.531072
H	 3.620329	 0.675800	 0.253554
H	 4.170756	 -0.075607	 1.736730
H	 2.595226	 0.676513	 1.673608
H	 -3.440322	 -1.417144	 0.243099
H	 -3.694377	 -0.025850	 1.303346
H	 -2.331085	 -1.129829	 1.560495

6 3 2 1 F
