%nprocshared=4
%mem=2GB
#HF/cc-pVTZ nosymm scf=tight opt=ModRedundant

Mol

0 1
O	 -0.661489	 -1.654523	 1.661367
C	 -1.523129	 -1.436538	 0.878753
C	 -2.789244	 -2.244153	 0.783920
O	 -1.481217	 -0.452708	 0.001092
H	 -3.292492	 -2.208695	 1.740771
H	 -3.443818	 -1.877968	 0.009271
H	 -2.525724	 -3.274947	 0.588738
C	 -0.332055	 0.384012	 -0.000250
C	 0.892252	 -0.506059	 -0.000295
H	 -0.360822	 1.020205	 -0.874146
H	 -0.359817	 1.021310	 0.872861
C	 2.188199	 0.299473	 -0.001416
H	 0.857046	 -1.152781	 -0.871031
H	 0.857910	 -1.151798	 0.871202
C	 2.481997	 0.957193	 -1.346857
H	 2.139131	 1.066302	 0.767702
H	 3.018304	 -0.348909	 0.267841
C	 1.368489	 0.752084	 -2.368150
H	 3.412533	 0.561030	 -1.743361
H	 2.643002	 2.021098	 -1.197619
H	 1.206902	 -0.302499	 -2.564597
H	 1.607884	 1.230713	 -3.310546
H	 0.431324	 1.168601	 -2.014474

19 15 12 16 F
