%nprocshared=4
%mem=2GB
#HF/cc-pVTZ nosymm scf=tight opt=ModRedundant

Mol

0 1
H	 2.444424	 -0.671388	 -0.180783
C	 1.726677	 0.130716	 -0.216863
O	 0.462329	 -0.453336	 -0.000137
H	 1.774656	 0.607462	 -1.187754
H	 1.960490	 0.852187	 0.555827
C	 -0.590565	 0.341382	 0.000062
O	 -1.693898	 -0.053880	 0.000252
H	 -0.340426	 1.403822	 0.000200

2 3 6 7 F
