%nprocshared=1
%mem=2GB
#HF/6-31G* nosymm scf=tight 

Mol

0 1
O	 -2.042549	 -1.228399	 -0.269030
C	 -1.653912	 -0.146171	 0.050137
C	 -0.332303	 0.024011	 0.778412
C	 -2.438579	 1.106236	 -0.272369
C	 0.845713	 -0.001731	 -0.208243
H	 -0.323783	 0.953829	 1.340327
H	 -0.235459	 -0.796807	 1.480410
C	 2.113122	 -0.600590	 0.403372
H	 1.057669	 1.008277	 -0.554714
H	 0.552613	 -0.575426	 -1.082375
C	 3.283655	 -0.635666	 -0.578376
H	 2.395803	 -0.027030	 1.283454
H	 1.900934	 -1.609306	 0.749835
H	 3.542094	 0.363518	 -0.917335
H	 3.041959	 -1.229750	 -1.454783
H	 4.166998	 -1.067584	 -0.118835
H	 -3.277823	 0.863061	 -0.908988
H	 -1.806773	 1.843019	 -0.759671
H	 -2.802853	 1.554979	 0.648059

11 8 5 9 F
5 3 2 4 F
