%nprocshared=4
%mem=2GB
#HF/cc-pVTZ nosymm scf=tight opt=ModRedundant

Mol

0 1
H	 -1.088256	 -1.364742	 0.152233
O	 -1.432053	 -0.565244	 -0.200812
C	 -0.727158	 0.534527	 0.310686
C	 0.680222	 0.664433	 -0.252229
H	 -1.306802	 1.408001	 0.044211
H	 -0.690821	 0.490158	 1.397609
C	 0.989225	 2.040910	 -0.833499
H	 1.390563	 0.430597	 0.533881
H	 0.802905	 -0.089688	 -1.024822
H	 0.935517	 2.814573	 -0.075420
H	 1.988839	 2.070878	 -1.249942
H	 0.294154	 2.298027	 -1.627051

8 4 3 2 F
