%nprocshared=4
%mem=2GB
#HF/cc-pVTZ nosymm scf=tight opt=ModRedundant

Mol

0 1
H	 -1.088256	 -1.364742	 0.152233
O	 -1.432053	 -0.565244	 -0.200812
C	 -0.727158	 0.534527	 0.310686
C	 0.680222	 0.664433	 -0.252229
H	 -1.306802	 1.408001	 0.044211
H	 -0.690821	 0.490158	 1.397609
C	 0.913400	 1.947279	 -1.044682
H	 1.388006	 0.606521	 0.568088
H	 0.865658	 -0.194024	 -0.892006
H	 0.795846	 2.827174	 -0.421713
H	 1.917276	 1.975524	 -1.450869
H	 0.219534	 2.027929	 -1.875947

8 4 3 2 F
