%nprocshared=1
%mem=2GB
#HF/6-31G* nosymm scf=tight 

Mol

0 1
H	 -3.161837	 0.500524	 -0.000234
C	 -2.367097	 -0.232926	 -0.000000
O	 -1.158440	 0.455814	 -0.000122
H	 -2.468853	 -0.861886	 -0.882833
H	 -2.468942	 -0.861421	 0.883154
C	 -0.029776	 -0.365156	 0.000148
C	 1.212217	 0.508981	 0.000007
H	 -0.036772	 -1.013236	 -0.877259
H	 -0.036869	 -1.012778	 0.877897
C	 2.481573	 -0.279114	 0.320196
H	 1.300098	 0.982026	 -0.973218
H	 1.072563	 1.305727	 0.724156
H	 2.653155	 -1.067169	 -0.407782
H	 3.351597	 0.368855	 0.313781
H	 2.423746	 -0.741837	 1.301495

6 3 2 4 F
8 6 3 2 F
