%nprocshared=1
%mem=2GB
#HF/6-31G* nosymm scf=tight opt=ModRedundant

Mol

0 1
H	 -3.420663	 1.227371	 -1.044276
O	 -3.452007	 0.283848	 -0.965577
C	 -3.181085	 -0.079926	 0.364119
C	 -1.765924	 0.277073	 0.805136
H	 -3.327791	 -1.152017	 0.410903
H	 -3.905698	 0.375695	 1.036898
C	 -0.677594	 -0.417312	 -0.014550
H	 -1.637766	 1.358238	 0.744969
H	 -1.659588	 0.017670	 1.857098
C	 0.738335	 -0.034840	 0.421385
H	 -0.814977	 -0.178223	 -1.064632
H	 -0.802730	 -1.495410	 0.071702
C	 1.822126	 -0.773636	 -0.368337
H	 0.864591	 1.039430	 0.309931
H	 0.860571	 -0.248118	 1.482599
C	 3.256782	 -0.490531	 0.091847
H	 1.729173	 -0.526071	 -1.424636
H	 1.640161	 -1.843583	 -0.291405
C	 3.723329	 0.949426	 -0.130102
H	 3.927658	 -1.159792	 -0.441356
H	 3.352646	 -0.742739	 1.146079
H	 3.626920	 1.233987	 -1.174549
H	 4.766770	 1.063675	 0.147417
H	 3.151140	 1.657668	 0.459946

13 10 7 11 F
