%nprocshared=4
%mem=2GB
#HF/cc-pVTZ nosymm scf=tight opt=ModRedundant

Mol

0 1
H	 2.462485	 -2.216993	 0.000000
O	 2.777472	 -1.330706	 0.000000
C	 1.763288	 -0.447523	 0.000000
C	 1.899824	 0.684014	 -0.791267
C	 0.619823	 -0.632785	 0.747345
H	 2.797121	 0.808418	 -1.364449
C	 0.894286	 1.622452	 -0.830997
H	 0.487910	 -1.495874	 1.366193
C	 -0.368703	 0.329238	 0.683316
H	 1.008576	 2.493799	 -1.445358
C	 -0.263665	 1.458595	 -0.089213
N	 -1.582954	 0.125494	 1.481364
H	 -1.052362	 2.178485	 -0.110139
O	 -1.648002	 -0.858845	 2.140091
O	 -2.425478	 0.955630	 1.420338

4 3 2 1 F
