%nprocshared=1
%mem=2GB
#HF/6-31G* nosymm scf=tight 

Mol

0 1
H	 -3.420663	 1.227371	 -1.044276
O	 -3.452007	 0.283848	 -0.965577
C	 -3.181085	 -0.079926	 0.364119
C	 -1.765924	 0.277073	 0.805136
H	 -3.327791	 -1.152017	 0.410903
H	 -3.905698	 0.375695	 1.036898
C	 -0.677594	 -0.417312	 -0.014550
H	 -1.637766	 1.358238	 0.744969
H	 -1.659588	 0.017670	 1.857098
C	 -0.845431	 -0.222081	 -1.522825
H	 -0.676375	 -1.477368	 0.219948
H	 0.294822	 -0.035879	 0.292547
C	 0.250960	 -0.915026	 -2.336360
H	 -1.821956	 -0.595906	 -1.821277
H	 -0.842851	 0.842704	 -1.752677
C	 0.176715	 -0.674656	 -3.848599
H	 0.220588	 -1.985973	 -2.141819
H	 1.219287	 -0.570257	 -1.979577
C	 -1.055770	 -1.274417	 -4.528064
H	 1.067299	 -1.096385	 -4.308266
H	 0.212561	 0.395110	 -4.044860
H	 -1.124718	 -2.342317	 -4.338398
H	 -1.010027	 -1.133213	 -5.603613
H	 -1.975465	 -0.816407	 -4.179420

20 16 13 17 F
17 13 10 7 F
13 10 7 11 F
1 2 3 5 F
7 4 3 2 F
