%nprocshared=4
%mem=2GB
#HF/cc-pVTZ nosymm scf=tight opt=ModRedundant

Mol

0 1
O	 -0.694481	 1.313155	 -0.204815
C	 -0.862519	 0.151932	 -0.046791
C	 -2.171428	 -0.477048	 0.339095
O	 0.085519	 -0.757083	 -0.192238
H	 -2.467997	 -1.191667	 -0.417688
H	 -2.923379	 0.287970	 0.444097
H	 -2.053854	 -1.015120	 1.270901
C	 1.132678	 -0.511255	 -1.123638
C	 2.245063	 0.313822	 -0.510657
H	 0.725023	 -0.026615	 -1.996998
H	 1.488967	 -1.492316	 -1.399917
H	 3.052312	 0.423584	 -1.226026
H	 1.892074	 1.300248	 -0.242802
H	 2.638218	 -0.171471	 0.374505

8 4 2 1 F
