%nprocshared=4
%mem=2GB
#HF/cc-pVTZ nosymm scf=tight opt=ModRedundant

Mol

0 1
H	 0.372786	 -3.063731	 -4.270100
O	 1.311417	 -3.054546	 -4.296892
C	 1.799065	 -1.830421	 -3.814203
C	 1.658666	 -1.673376	 -2.307448
H	 2.845903	 -1.802073	 -4.084955
H	 1.312159	 -1.000761	 -4.323160
C	 2.624984	 -0.665524	 -1.689135
H	 0.636092	 -1.384196	 -2.084122
H	 1.817252	 -2.648746	 -1.853683
C	 4.079973	 -1.128458	 -1.748615
H	 2.344588	 -0.486913	 -0.656431
H	 2.532403	 0.287164	 -2.207884
C	 5.100286	 -0.124181	 -1.209503
H	 4.178628	 -2.066026	 -1.206894
H	 4.329596	 -1.349728	 -2.782634
C	 5.243378	 1.156116	 -2.030543
H	 4.811368	 0.145202	 -0.197333
H	 6.070699	 -0.608520	 -1.126627
C	 6.197612	 2.166872	 -1.399497
H	 4.264584	 1.615481	 -2.150605
H	 5.593997	 0.921239	 -3.030994
C	 6.345686	 3.444787	 -2.218582
H	 5.846545	 2.417429	 -0.402226
H	 7.173750	 1.706736	 -1.271072
H	 5.390841	 3.946094	 -2.337742
H	 7.026701	 4.140543	 -1.741875
H	 6.731434	 3.232086	 -3.210202

8 4 3 2 F
