%nprocshared=1
%mem=2GB
#HF/6-31G* nosymm scf=tight 

Mol

0 1
H	 2.591676	 2.013956	 0.335017
O	 3.341076	 1.666752	 -0.126416
C	 3.569581	 0.339145	 0.272707
C	 2.539767	 -0.640285	 -0.279495
H	 4.553106	 0.084646	 -0.100901
H	 3.608576	 0.269204	 1.359154
C	 1.115811	 -0.397273	 0.226630
H	 2.556196	 -0.582511	 -1.364741
H	 2.852081	 -1.648031	 -0.010655
C	 0.383051	 -1.695483	 0.576675
H	 0.554930	 0.143012	 -0.530911
H	 1.149242	 0.242867	 1.108358
C	 -1.017823	 -1.504461	 1.169469
H	 0.315417	 -2.319377	 -0.312723
H	 0.986309	 -2.251515	 1.291244
C	 -2.048600	 -0.906953	 0.207720
H	 -1.380394	 -2.472709	 1.508371
H	 -0.949620	 -0.879767	 2.058818
C	 -3.453462	 -0.833883	 0.809765
H	 -2.079407	 -1.504674	 -0.702165
H	 -1.743700	 0.092126	 -0.094242
C	 -4.483029	 -0.231905	 -0.145891
H	 -3.772523	 -1.832275	 1.101143
H	 -3.422822	 -0.245119	 1.724262
H	 -4.560947	 -0.817363	 -1.057698
H	 -5.468246	 -0.195580	 0.308711
H	 -4.211564	 0.781672	 -0.427551

14 10 7 4 F
14 10 13 16 F
8 4 3 2 F
10 13 16 20 F
20 16 19 22 F
4 3 2 1 F
