%nprocshared=1
%mem=2GB
#HF/6-31G* nosymm scf=tight 

Mol

0 1
H	 2.591676	 2.013956	 0.335017
O	 3.341076	 1.666752	 -0.126416
C	 3.569581	 0.339145	 0.272707
C	 2.732758	 -0.079107	 1.476667
H	 3.312328	 -0.273488	 -0.581796
H	 4.627526	 0.179639	 0.477868
C	 3.052704	 0.696734	 2.756734
H	 1.682401	 0.046209	 1.226842
H	 2.893399	 -1.142157	 1.648386
C	 2.234884	 0.216818	 3.959094
H	 2.866012	 1.753895	 2.589632
H	 4.114177	 0.597762	 2.984375
C	 2.577739	 0.903242	 5.286352
H	 1.175493	 0.350700	 3.747874
H	 2.387204	 -0.854085	 4.075996
C	 2.232197	 2.393586	 5.349241
H	 2.044961	 0.389928	 6.084144
H	 3.637761	 0.769497	 5.496831
C	 2.494300	 3.008716	 6.725596
H	 1.183365	 2.530201	 5.089627
H	 2.804269	 2.942167	 4.604865
C	 2.156261	 4.497788	 6.789291
H	 1.913726	 2.474856	 7.474872
H	 3.539625	 2.864594	 6.990945
H	 1.108656	 4.672128	 6.560480
H	 2.350754	 4.903807	 7.777196
H	 2.747900	 5.065410	 6.076457

14 10 7 4 F
14 10 13 16 F
10 7 4 8 F
8 4 3 2 F
10 13 16 20 F
20 16 19 22 F
