%nprocshared=4
%mem=2GB
#HF/cc-pVTZ nosymm scf=tight opt=ModRedundant

Mol

0 1
H	 2.614283	 2.028610	 0.296620
O	 3.358864	 1.662087	 -0.142800
C	 3.565468	 0.338079	 0.273842
C	 2.551329	 -0.139233	 1.302619
H	 3.488034	 -0.267951	 -0.618745
H	 4.575484	 0.215039	 0.660077
C	 2.626768	 0.589287	 2.642551
H	 1.555885	 -0.030407	 0.882612
H	 2.712302	 -1.202769	 1.461918
C	 1.616660	 0.061170	 3.660200
H	 2.459527	 1.649460	 2.484225
H	 3.630768	 0.488392	 3.051318
C	 1.697741	 0.705308	 5.045396
H	 0.611911	 0.187168	 3.264180
H	 1.765508	 -1.009429	 3.770343
C	 1.303158	 2.180236	 5.096706
H	 1.048924	 0.150710	 5.717694
H	 2.706114	 0.589062	 5.436325
C	 1.304474	 2.749991	 6.512965
H	 0.312372	 2.300851	 4.663965
H	 1.977338	 2.769030	 4.482047
C	 0.914599	 4.223397	 6.567411
H	 0.621905	 2.174143	 7.131896
H	 2.291387	 2.622615	 6.949816
H	 -0.081552	 4.379689	 6.166794
H	 0.922997	 4.594864	 7.585767
H	 1.601207	 4.832024	 5.988192

4 3 2 1 F
