%nprocshared=1
%mem=2GB
#HF/6-31G* nosymm scf=tight 

Mol

0 1
O	 -2.821601	 1.309235	 -0.001213
C	 -2.668563	 0.129746	 -0.000350
C	 -3.801572	 -0.864014	 -0.000442
O	 -1.481751	 -0.454642	 0.000584
H	 -4.417280	 -0.689587	 -0.874708
H	 -3.443784	 -1.883046	 -0.000565
H	 -4.417179	 -0.689832	 0.873954
C	 -0.334255	 0.388708	 0.000906
C	 0.891947	 -0.504646	 0.000751
H	 -0.365390	 1.025305	 -0.873475
H	 -0.365484	 1.024911	 0.875569
C	 2.191998	 0.301789	 0.000897
H	 0.855148	 -1.151283	 -0.871571
H	 0.855132	 -1.151660	 0.872805
C	 3.361361	 -0.452722	 -0.634423
H	 2.038994	 1.238686	 -0.531924
H	 2.452938	 0.571067	 1.022896
C	 4.659504	 0.353310	 -0.635461
H	 3.102433	 -0.722271	 -1.655880
H	 3.517138	 -1.388171	 -0.101752
H	 4.545207	 1.280287	 -1.190136
H	 5.469133	 -0.207368	 -1.091943
H	 4.963208	 0.609086	 0.375654

13 9 8 10 F
2 4 8 10 F
19 15 12 16 F
1 2 4 8 F
