%nprocshared=4
%mem=2GB
#HF/cc-pVTZ nosymm scf=tight opt=ModRedundant

Mol

0 1
H	 -3.436473	 1.252944	 -1.023892
O	 -3.458596	 0.315260	 -0.960865
C	 -3.176635	 -0.080824	 0.355601
C	 -1.763371	 0.265266	 0.799691
H	 -3.321825	 -1.153438	 0.379502
H	 -3.895468	 0.357385	 1.043382
C	 -0.739968	 -0.829389	 0.512116
H	 -1.457351	 1.191019	 0.314719
H	 -1.786817	 0.475536	 1.866286
C	 0.677814	 -0.452475	 0.933779
H	 -0.754737	 -1.063273	 -0.546654
H	 -1.039816	 -1.738051	 1.028769
C	 1.696301	 -1.554278	 0.647838
H	 0.966202	 0.460872	 0.422389
H	 0.689389	 -0.223281	 1.997355
C	 3.118403	 -1.256296	 1.126043
H	 1.713658	 -1.757810	 -0.420396
H	 1.358453	 -2.470653	 1.124006
C	 3.807171	 -0.102688	 0.400831
H	 3.717561	 -2.152826	 0.999480
H	 3.102207	 -1.052074	 2.193494
H	 3.832885	 -0.276465	 -0.670251
H	 4.830502	 0.008806	 0.740839
H	 3.304052	 0.841613	 0.570454

7 4 3 2 F
