%nprocshared=4
%mem=2GB
#HF/cc-pVTZ nosymm scf=tight opt=ModRedundant

Mol

0 1
O	 -2.817697	 1.304178	 0.001046
C	 -2.664672	 0.129869	 0.003507
C	 -3.797908	 -0.860100	 -0.001145
O	 -1.481217	 -0.452708	 0.001092
H	 -4.408836	 -0.679689	 -0.875387
H	 -3.443486	 -1.878443	 -0.002770
H	 -4.412123	 -0.683688	 0.871605
C	 -0.332055	 0.384012	 -0.000250
C	 0.892252	 -0.506059	 -0.000295
H	 -0.360822	 1.020205	 -0.874146
H	 -0.359817	 1.021310	 0.872861
C	 2.188199	 0.299473	 -0.001416
H	 0.857046	 -1.152781	 -0.871031
H	 0.857910	 -1.151798	 0.871202
C	 2.155756	 1.482585	 -0.964909
H	 2.390254	 0.662622	 1.003210
H	 3.019175	 -0.351047	 -0.262714
C	 3.451030	 2.287114	 -0.967205
H	 1.326836	 2.134300	 -0.703727
H	 1.954070	 1.120907	 -1.969199
H	 3.662443	 2.691433	 0.017008
H	 3.395114	 3.118108	 -1.660623
H	 4.294594	 1.670092	 -1.257958

16 12 9 13 F
