%nprocshared=4
%mem=2GB
#HF/cc-pVTZ nosymm scf=tight opt=ModRedundant

Mol

0 1
H	 2.614283	 2.028610	 0.296620
O	 3.358864	 1.662087	 -0.142800
C	 3.565468	 0.338079	 0.273842
C	 2.533667	 -0.637565	 -0.272227
H	 4.548038	 0.064914	 -0.086598
H	 3.593945	 0.282242	 1.360360
C	 3.063343	 -1.564899	 -1.363713
H	 2.145801	 -1.227679	 0.552688
H	 1.701330	 -0.058459	 -0.664974
C	 1.991648	 -2.506938	 -1.910401
H	 3.889463	 -2.147350	 -0.969657
H	 3.463466	 -0.967339	 -2.181093
C	 2.448467	 -3.408552	 -3.058732
H	 1.611199	 -3.123528	 -1.099659
H	 1.151657	 -1.910545	 -2.255655
C	 3.487443	 -4.462307	 -2.679429
H	 1.575801	 -3.913967	 -3.463130
H	 2.839556	 -2.791869	 -3.864900
C	 3.836616	 -5.399208	 -3.832991
H	 3.113209	 -5.049079	 -1.843297
H	 4.396868	 -3.982029	 -2.331173
C	 4.876463	 -6.450195	 -3.458777
H	 2.933375	 -5.894097	 -4.179138
H	 4.202707	 -4.813763	 -4.672213
H	 4.526614	 -7.073602	 -2.642563
H	 5.099043	 -7.099209	 -4.298030
H	 5.805825	 -5.987092	 -3.143858

8 4 3 2 F
