%nprocshared=4
%mem=2GB
#HF/cc-pVTZ nosymm scf=tight opt=ModRedundant

Mol

0 1
H	 2.517698	 2.286503	 1.729224
O	 1.584475	 2.216501	 1.816514
C	 1.069906	 1.365311	 0.907580
C	 1.861810	 0.702157	 -0.017512
C	 -0.294986	 1.162837	 0.917360
H	 2.924892	 0.861056	 -0.023719
C	 1.288106	 -0.160623	 -0.929340
H	 -0.909295	 1.673520	 1.630572
C	 -0.861704	 0.296439	 0.000000
H	 1.910720	 -0.668174	 -1.640372
C	 -0.076488	 -0.368693	 -0.926206
C	 -2.330689	 0.069587	 0.000000
H	 -0.525448	 -1.038999	 -1.634028
O	 -2.848621	 -0.993976	 0.000000
H	 -2.934306	 0.982410	 0.000000

11 9 12 14 F
