%nprocshared=4
%mem=2GB
#HF/cc-pVTZ nosymm scf=tight opt=ModRedundant

Mol

0 1
O	 -2.003841	 1.607825	 -1.006166
C	 -1.975483	 0.563608	 -0.440270
C	 -0.881910	 -0.448129	 -0.720509
C	 -3.010012	 0.196722	 0.596992
C	 0.376695	 -0.140025	 0.100361
H	 -0.648962	 -0.394824	 -1.776447
H	 -1.231019	 -1.450893	 -0.498129
C	 1.630207	 -0.772146	 -0.501001
H	 0.486632	 0.935267	 0.162725
H	 0.248225	 -0.501310	 1.117842
C	 2.907848	 -0.545876	 0.309149
H	 1.772784	 -0.391628	 -1.509394
H	 1.468529	 -1.842059	 -0.599744
C	 3.373802	 0.906639	 0.372125
H	 3.699140	 -1.146831	 -0.127906
H	 2.764321	 -0.923458	 1.318191
H	 3.519798	 1.311927	 -0.623875
H	 4.316899	 0.983758	 0.900700
H	 2.661122	 1.540651	 0.885346
H	 -3.620696	 -0.617219	 0.219417
H	 -3.637670	 1.047437	 0.813554
H	 -2.533626	 -0.155131	 1.505202

6 3 5 8 F
