%nprocshared=1
%mem=2GB
#HF/6-31G* nosymm scf=tight opt=ModRedundant

Mol

0 1
O	 3.225979	 0.970355	 -0.599647
C	 2.701189	 0.057885	 -0.047330
C	 1.245376	 -0.013843	 0.345420
O	 3.347903	 -1.046386	 0.304773
C	 0.455112	 1.231400	 -0.050772
H	 0.838542	 -0.913825	 -0.103701
H	 1.208210	 -0.175333	 1.419774
C	 -0.998893	 1.219485	 0.433193
H	 0.482531	 1.345121	 -1.130325
H	 0.957290	 2.103070	 0.354729
C	 -1.187669	 1.545023	 1.917611
H	 -1.410344	 0.231666	 0.239167
H	 -1.586216	 1.913582	 -0.166215
C	 -2.641553	 1.412606	 2.375528
H	 -0.561730	 0.881003	 2.511829
H	 -0.844659	 2.555893	 2.126075
C	 -2.842984	 1.740604	 3.856060
H	 -2.988635	 0.398954	 2.182455
H	 -3.269543	 2.068417	 1.774495
C	 -4.296920	 1.602241	 4.306201
H	 -2.215410	 1.086848	 4.458053
H	 -2.500657	 2.754966	 4.050130
H	 -4.407494	 1.841221	 5.359419
H	 -4.658601	 0.588714	 4.157388
H	 -4.946036	 2.269267	 3.745845
C	 4.728119	 -1.109107	 -0.004993
H	 4.882018	 -1.033965	 -1.071845
H	 5.068212	 -2.067527	 0.355250
H	 5.265056	 -0.311663	 0.488280

11 8 5 9 F
