%nprocshared=4
%mem=2GB
#HF/cc-pVTZ nosymm scf=tight opt=ModRedundant

Mol

0 1
H	 2.410010	 -1.644900	 0.892200
N	 1.430318	 -1.463495	 0.906508
C	 0.804215	 -1.936118	 -0.311878
C	 1.173672	 -0.054197	 1.125268
H	 0.997911	 -2.996225	 -0.421445
H	 1.190505	 -1.430854	 -1.199069
C	 -0.693217	 -1.700449	 -0.232909
H	 1.635085	 0.249378	 2.057089
H	 1.583304	 0.569967	 0.328876
C	 -0.324244	 0.179006	 1.202353
H	 -1.110628	 -2.328575	 0.559439
H	 -1.155858	 -1.998825	 -1.166212
N	 -0.976577	 -0.298712	 -0.000000
H	 -0.520094	 1.239593	 1.306835
H	 -0.716236	 -0.319643	 2.093579
C	 -2.391156	 -0.021003	 -0.000000
H	 -2.853954	 -0.458728	 -0.875714
H	 -2.853954	 -0.458728	 0.875714
H	 -2.614037	 1.049773	 -0.000000

7 13 16 19 F
