%nprocshared=4
%mem=2GB
#HF/cc-pVTZ nosymm scf=tight opt=ModRedundant

Mol

0 1
H	 -2.171709	 0.882708	 0.500286
C	 -2.016894	 0.001719	 -0.114152
O	 -0.775228	 0.000056	 -0.739966
H	 -2.760846	 0.003757	 -0.898169
H	 -2.174774	 -0.879864	 0.498643
C	 0.059170	 1.138364	 -0.654434
C	 1.298585	 0.746396	 -1.451363
C	 -0.605748	 2.358960	 -1.293707
C	 0.445090	 1.432182	 0.796542
H	 1.026988	 0.513006	 -2.473061
H	 1.759689	 -0.131368	 -1.016602
H	 2.024613	 1.550612	 -1.460805
H	 -0.935595	 2.124218	 -2.298578
H	 0.098165	 3.180732	 -1.349260
H	 -1.460570	 2.702167	 -0.724453
H	 0.855132	 0.544860	 1.263676
H	 1.194912	 2.213453	 0.832029
H	 -0.400912	 1.767817	 1.383225

6 3 2 5 F
