%nprocshared=1
%mem=2GB
#HF/6-31G* nosymm scf=tight opt=ModRedundant

Mol

0 1
H	 2.163286	 -4.932673	 1.084589
O	 2.980023	 -4.731164	 0.651684
C	 2.728573	 -4.331532	 -0.671615
C	 2.114894	 -2.939455	 -0.772844
H	 3.689058	 -4.344719	 -1.170583
H	 2.092886	 -5.058983	 -1.175099
C	 0.727401	 -2.823228	 -0.137060
H	 2.791574	 -2.229408	 -0.304544
H	 2.053513	 -2.671782	 -1.826386
C	 0.115918	 -1.429151	 -0.302766
H	 0.797443	 -3.065424	 0.919728
H	 0.061136	 -3.560950	 -0.584494
C	 -1.309753	 -1.282496	 0.241564
H	 0.761492	 -0.695738	 0.177011
H	 0.107643	 -1.178489	 -1.361444
C	 -2.037799	 -0.007733	 -0.193645
H	 -1.890610	 -2.142323	 -0.085726
H	 -1.285946	 -1.330893	 1.329189
C	 -3.489788	 0.042957	 0.286558
H	 -2.017067	 0.064384	 -1.280144
H	 -1.513726	 0.868678	 0.179924
C	 -4.216917	 1.317354	 -0.141063
H	 -4.025645	 -0.823308	 -0.095450
H	 -3.513059	 -0.038752	 1.371301
H	 -4.239342	 1.411634	 -1.223113
H	 -5.243387	 1.322503	 0.212445
H	 -3.726170	 2.201406	 0.256408

14 10 13 16 F
