%nprocshared=1
%mem=2GB
#HF/6-31G* nosymm scf=tight opt=ModRedundant

Mol

0 1
O	 2.862325	 1.357334	 0.000267
C	 2.843464	 0.164689	 -0.000222
C	 1.546494	 -0.624492	 -0.000609
C	 4.124123	 -0.644674	 -0.000428
C	 0.291004	 0.242674	 0.000989
H	 1.557904	 -1.283758	 -0.867573
H	 1.558622	 -1.285963	 0.864672
C	 -0.994322	 -0.586602	 0.000262
H	 0.309117	 0.896430	 -0.865270
H	 0.309661	 0.894078	 0.869017
C	 -2.259874	 0.272531	 0.000494
H	 -1.004862	 -1.240012	 -0.870939
H	 -1.005220	 -1.241071	 0.870675
C	 -2.041107	 1.672779	 -0.575231
H	 -2.636424	 0.357518	 1.018338
H	 -3.037404	 -0.232755	 -0.569708
C	 -3.309719	 2.525008	 -0.571405
H	 -1.264923	 2.179295	 -0.005315
H	 -1.666131	 1.589141	 -1.593198
H	 -3.691011	 2.655774	 0.437390
H	 -3.122740	 3.511418	 -0.984607
H	 -4.094694	 2.062036	 -1.162688
H	 4.165367	 -1.288615	 -0.874074
H	 4.976217	 0.020734	 -0.001915
H	 4.166763	 -1.286207	 0.874930

15 11 8 12 F
