%nprocshared=1
%mem=2GB
#HF/6-31G* nosymm scf=tight 

Mol

0 1
H	 -2.172150	 0.880146	 0.502514
C	 -2.018062	 -0.000025	 -0.114509
O	 -0.774054	 0.001095	 -0.743181
H	 -2.760490	 0.003458	 -0.901350
H	 -2.173624	 -0.884374	 0.496163
C	 -0.164295	 -1.228511	 -1.093603
C	 1.148921	 -0.806512	 -1.748882
C	 0.121249	 -2.077659	 0.149217
C	 -1.022917	 -2.005277	 -2.096857
H	 1.747644	 -0.233517	 -1.049854
H	 0.951228	 -0.182427	 -2.613064
H	 1.721620	 -1.670941	 -2.068945
H	 0.667929	 -1.495903	 0.883879
H	 0.720643	 -2.942543	 -0.115930
H	 -0.788586	 -2.443920	 0.612474
H	 -1.279660	 -1.372894	 -2.940199
H	 -0.478581	 -2.866810	 -2.469676
H	 -1.942271	 -2.370713	 -1.652023

2 3 6 7 F
