%nprocshared=4
%mem=2GB
#HF/cc-pVTZ nosymm scf=tight opt=ModRedundant

Mol

0 1
O	 -0.694481	 1.313155	 -0.204815
C	 -0.862519	 0.151932	 -0.046791
C	 -2.171428	 -0.477048	 0.339095
O	 0.085519	 -0.757083	 -0.192238
H	 -2.467997	 -1.191667	 -0.417688
H	 -2.923379	 0.287970	 0.444097
H	 -2.053854	 -1.015120	 1.270901
C	 1.392036	 -0.330828	 -0.560749
C	 2.010718	 0.557652	 0.498371
H	 1.345844	 0.173770	 -1.513147
H	 1.956154	 -1.244471	 -0.673797
H	 3.027036	 0.806985	 0.214853
H	 1.452512	 1.477611	 0.605437
H	 2.038940	 0.049962	 1.454953

10 8 4 2 F
