%nprocshared=1
%mem=2GB
#HF/6-31G* nosymm scf=tight opt=ModRedundant

Mol

0 1
H	 -2.646374	 -0.642757	 1.268656
C	 -2.083525	 -0.384536	 0.393091
O	 -0.807605	 -0.127164	 0.768327
F	 -2.118945	 -1.383102	 -0.486752
F	 -2.621877	 0.670592	 -0.209486
C	 0.084052	 0.273579	 -0.209957
C	 -0.515479	 -0.130572	 -1.550622
Cl	 1.663716	 -0.492839	 0.023454
H	 0.235561	 1.338849	 -0.214480
F	 0.276977	 0.232694	 -2.536620
F	 -1.669084	 0.488516	 -1.703469
F	 -0.723714	 -1.422189	 -1.630241

9 6 3 2 F
