%nprocshared=4
%mem=2GB
#HF/cc-pVTZ nosymm scf=tight opt=ModRedundant

Mol

0 1
H	 -1.752232	 -2.214755	 -0.011938
C	 -1.343852	 -1.221619	 -0.018179
N	 -0.058800	 -1.097635	 -0.261688
C	 -2.148159	 -0.124236	 0.219734
C	 0.449026	 0.119242	 -0.273393
H	 -3.196988	 -0.237571	 0.417076
N	 -1.655094	 1.094230	 0.209506
C	 -0.370318	 1.215445	 -0.035100
C	 1.924033	 0.265863	 -0.538106
H	 0.033214	 2.210441	 -0.046812
C	 2.228208	 0.634675	 -1.991001
H	 2.309634	 1.037619	 0.117232
H	 2.429062	 -0.657347	 -0.279567
H	 3.294327	 0.764556	 -2.134028
H	 1.733509	 1.558418	 -2.261094
H	 1.890183	 -0.140586	 -2.669423

12 9 5 3 F
