%nprocshared=4
%mem=2GB
#HF/cc-pVTZ nosymm scf=tight opt=ModRedundant

Mol

0 1
H	 -2.244850	 -0.101423	 2.541469
C	 -1.967753	 -1.151730	 2.595845
O	 -0.778949	 -1.399331	 1.922807
H	 -1.823025	 -1.419794	 3.632225
H	 -2.786723	 -1.744686	 2.192639
C	 -0.817485	 -1.108296	 0.564334
C	 0.548544	 -1.314013	 -0.040638
H	 -1.529274	 -1.760723	 0.058700
H	 -1.130139	 -0.079410	 0.399803
O	 1.401606	 -0.295166	 0.366636
H	 0.933272	 -2.284067	 0.266626
H	 0.456626	 -1.317653	 -1.126691
C	 2.714315	 -0.441627	 -0.061017
H	 2.765292	 -0.641548	 -1.128869
H	 3.305661	 0.447341	 0.150952
H	 3.143725	 -1.278506	 0.470147

7 10 13 14 F
