%nprocshared=1
%mem=2GB
#HF/6-31G* nosymm scf=tight opt=ModRedundant

Mol

0 1
O	 -2.042549	 -1.228399	 -0.269030
C	 -1.653912	 -0.146171	 0.050137
C	 -0.332303	 0.024011	 0.778412
C	 -2.438579	 1.106236	 -0.272369
C	 -0.429112	 -0.497111	 2.220956
H	 0.463247	 -0.494471	 0.250531
H	 -0.097105	 1.082532	 0.790177
C	 0.873886	 -0.316359	 3.001055
H	 -0.699274	 -1.551646	 2.213913
H	 -1.235380	 0.027263	 2.725043
C	 0.777701	 -0.825551	 4.438650
H	 1.678828	 -0.836141	 2.485962
H	 1.143756	 0.737063	 3.007470
H	 0.542081	 -1.885667	 4.464922
H	 0.002122	 -0.300898	 4.988795
H	 1.714193	 -0.681891	 4.968150
H	 -3.277823	 0.863061	 -0.908988
H	 -1.806773	 1.843019	 -0.759671
H	 -2.802853	 1.554979	 0.648059

5 3 2 4 F
