%nprocshared=1
%mem=2GB
#HF/6-31G* nosymm scf=tight opt=ModRedundant

Mol

0 1
H	 -2.165586	 0.123746	 1.969288
O	 -1.754776	 0.976734	 1.975052
C	 -0.898248	 1.095535	 0.870862
C	 0.375235	 0.293466	 1.072338
H	 -1.384555	 0.784247	 -0.049444
H	 -0.653016	 2.143924	 0.774991
O	 1.171513	 0.459272	 -0.058250
H	 0.134305	 -0.761049	 1.220429
H	 0.887121	 0.639666	 1.968275
C	 2.397842	 -0.198080	 -0.002151
H	 2.508049	 -0.905315	 -0.822092
H	 3.173794	 0.550865	 -0.078850
H	 2.517602	 -0.735921	 0.936026

4 7 10 13 F
