%nprocshared=1
%mem=2GB
#HF/6-31G* nosymm scf=tight opt=ModRedundant

Mol

0 1
H	 -1.696427	 -2.478568	 -2.125705
C	 -2.372274	 -1.725891	 -1.701053
C	 -2.266917	 -1.544671	 -0.208180
O	 -3.115103	 -1.124254	 -2.406735
C	 -0.824681	 -1.294563	 0.254048
H	 -2.925581	 -0.735598	 0.085541
H	 -2.636784	 -2.460130	 0.252024
C	 -0.252658	 0.041456	 -0.226725
H	 -0.800731	 -1.327638	 1.339229
H	 -0.189251	 -2.110213	 -0.087568
C	 1.180775	 0.282413	 0.250794
H	 -0.892557	 0.849011	 0.122891
H	 -0.280418	 0.084999	 -1.313865
C	 2.148627	 -0.814315	 -0.201312
H	 1.516199	 1.249228	 -0.115937
H	 1.192670	 0.346017	 1.338083
C	 3.580890	 -0.659131	 0.322722
H	 2.166869	 -0.852443	 -1.289387
H	 1.762857	 -1.776509	 0.128956
C	 4.324889	 0.564933	 -0.213704
H	 4.142010	 -1.551473	 0.056605
H	 3.564836	 -0.624694	 1.410140
H	 4.342616	 0.565491	 -1.300421
H	 3.866655	 1.493402	 0.110242
H	 5.353900	 0.572371	 0.132816

12 8 11 14 F
