%nprocshared=4
%mem=2GB
#HF/cc-pVTZ nosymm scf=tight opt=ModRedundant

Mol

0 1
O	 -2.016407	 -0.333830	 0.675326
C	 -1.081510	 0.147522	 0.122720
C	 0.327029	 -0.064006	 0.641890
C	 -1.244900	 1.006587	 -1.108369
C	 1.349460	 -0.017068	 -0.500215
H	 0.399029	 -1.014606	 1.159950
H	 0.538021	 0.726928	 1.350471
C	 2.779782	 -0.209014	 -0.009215
H	 1.115007	 -0.782959	 -1.233891
H	 1.259071	 0.936707	 -1.006644
H	 3.481860	 -0.160270	 -0.833072
H	 2.903471	 -1.171535	 0.475559
H	 3.052569	 0.559584	 0.705428
H	 -0.706598	 1.941244	 -0.997007
H	 -2.290699	 1.201115	 -1.289923
H	 -0.818276	 0.491051	 -1.962808

4 2 3 5 F
