%nprocshared=4
%mem=2GB
#HF/cc-pVTZ nosymm scf=tight opt=ModRedundant

Mol

0 1
H	 -3.436473	 1.252944	 -1.023892
O	 -3.458596	 0.315260	 -0.960865
C	 -3.176635	 -0.080824	 0.355601
C	 -1.763371	 0.265266	 0.799691
H	 -3.321825	 -1.153438	 0.379502
H	 -3.895468	 0.357385	 1.043382
C	 -0.673390	 -0.426948	 -0.013392
H	 -1.631049	 1.344913	 0.747560
H	 -1.664587	 -0.001624	 1.849167
C	 0.575379	 -0.746041	 0.804364
H	 -0.405531	 0.198643	 -0.857667
H	 -1.074886	 -1.346976	 -0.431550
C	 0.257045	 -1.416199	 2.139504
H	 1.228287	 -1.383452	 0.215884
H	 1.130293	 0.171454	 0.989107
C	 -0.480574	 -0.530186	 3.144863
H	 1.179862	 -1.775382	 2.589223
H	 -0.348753	 -2.297875	 1.949042
C	 0.327485	 0.657409	 3.662359
H	 -0.775971	 -1.143759	 3.990465
H	 -1.402787	 -0.170070	 2.696241
H	 1.259046	 0.328001	 4.111538
H	 -0.228417	 1.200470	 4.418202
H	 0.570909	 1.357831	 2.872575

11 7 4 3 F
