%nprocshared=4
%mem=2GB
#HF/cc-pVTZ nosymm scf=tight opt=ModRedundant

Mol

0 1
H	 -2.498963	 -0.741158	 -0.729149
O	 -2.346257	 -0.289210	 0.080372
C	 -1.183935	 0.486039	 -0.009831
C	 0.062853	 -0.375310	 0.027457
H	 -1.178881	 1.094526	 -0.908634
H	 -1.184406	 1.155156	 0.838676
O	 0.020161	 -1.156166	 1.176322
H	 0.952218	 0.257086	 0.027572
H	 0.103337	 -0.995054	 -0.865769
C	 1.094451	 -2.024793	 1.326687
H	 2.037029	 -1.484888	 1.384345
H	 0.950745	 -2.573029	 2.246182
H	 1.152435	 -2.731396	 0.502144

8 4 3 5 F
