%nprocshared=4
%mem=2GB
#HF/cc-pVTZ nosymm scf=tight opt=ModRedundant

Mol

0 1
H	 2.867672	 -0.456275	 0.875795
C	 2.403497	 -0.020426	 0.000000
N	 0.989899	 -0.304564	 0.000000
H	 2.867672	 -0.456275	 -0.875795
H	 2.620366	 1.051270	 0.000000
C	 0.675785	 -1.549982	 -0.669205
C	 0.206962	 0.782434	 -0.550465
H	 0.980050	 -1.526806	 -1.720218
H	 1.215103	 -2.358477	 -0.189413
C	 -0.814086	 -1.822267	 -0.589283
H	 0.402288	 1.685308	 0.016449
H	 0.475964	 0.981042	 -1.592548
C	 -1.270863	 0.450219	 -0.473595
H	 -1.070432	 -2.701160	 -1.164140
H	 -1.097356	 -1.993304	 0.447348
O	 -1.550483	 -0.758395	 -1.115630
H	 -1.857386	 1.213966	 -0.964828
H	 -1.577770	 0.396777	 0.569023

6 3 2 5 F
