%nprocshared=4
%mem=2GB
#HF/cc-pVTZ nosymm scf=tight opt=ModRedundant

Mol

0 1
O	 -0.384524	 0.159710	 -2.945462
C	 -0.962967	 0.440031	 -1.946335
C	 -0.881910	 -0.448129	 -0.720509
C	 -1.790305	 1.698722	 -1.836892
C	 0.376695	 -0.140025	 0.100361
H	 -0.850782	 -1.475197	 -1.061499
H	 -1.765108	 -0.319798	 -0.103777
C	 1.630207	 -0.772146	 -0.501001
H	 0.486632	 0.935267	 0.162725
H	 0.248225	 -0.501310	 1.117842
C	 2.907848	 -0.545876	 0.309149
H	 1.772784	 -0.391628	 -1.509394
H	 1.468529	 -1.842059	 -0.599744
C	 3.373802	 0.906639	 0.372125
H	 3.699140	 -1.146831	 -0.127906
H	 2.764321	 -0.923458	 1.318191
H	 3.519798	 1.311927	 -0.623875
H	 4.316899	 0.983758	 0.900700
H	 2.661122	 1.540651	 0.885346
H	 -2.838242	 1.430276	 -1.748790
H	 -1.648545	 2.314348	 -2.711807
H	 -1.526001	 2.254270	 -0.944087

6 3 5 8 F
