%nprocshared=4
%mem=2GB
#HF/cc-pVTZ nosymm scf=tight opt=ModRedundant

Mol

0 1
H	 -3.941973	 0.934228	 -0.390224
C	 -3.240162	 0.342701	 0.161016
C	 -2.105997	 -0.000418	 -0.398703
H	 -3.485368	 0.047206	 1.162193
O	 -1.189946	 -0.765863	 0.237511
H	 -1.846458	 0.297311	 -1.398265
C	 0.026572	 -0.995256	 -0.379403
C	 1.057223	 0.049888	 -0.004615
H	 -0.054361	 -1.010670	 -1.459674
H	 0.397526	 -1.952058	 -0.044198
F	 1.683810	 0.457384	 -1.090163
F	 0.505615	 1.104004	 0.557591
F	 1.955775	 -0.419750	 0.826350

11 8 7 9 F
