%nprocshared=1
%mem=2GB
#HF/6-31G* nosymm scf=tight 

Mol

0 1
H	 -3.161837	 0.500524	 -0.000234
C	 -2.367097	 -0.232926	 -0.000000
O	 -1.158440	 0.455814	 -0.000122
H	 -2.468853	 -0.861886	 -0.882833
H	 -2.468942	 -0.861421	 0.883154
C	 -0.029776	 -0.365156	 0.000148
C	 0.063042	 -1.070455	 1.342012
H	 0.867121	 0.229660	 -0.177815
H	 -0.096482	 -1.095287	 -0.807544
C	 1.275835	 -1.995477	 1.433375
H	 0.105332	 -0.318477	 2.123935
H	 -0.851474	 -1.634216	 1.498644
H	 2.204128	 -1.446100	 1.303445
H	 1.317004	 -2.485613	 2.400287
H	 1.240915	 -2.770890	 0.673165

6 3 2 4 F
11 7 6 8 F
