%nprocshared=4
%mem=2GB
#HF/cc-pVTZ nosymm scf=tight opt=ModRedundant

Mol

0 1
H	 1.992579	 -5.190841	 0.570324
O	 2.808499	 -4.967310	 0.162725
C	 2.579541	 -4.361752	 -1.082326
C	 2.034963	 -2.945078	 -0.976714
H	 3.538121	 -4.344505	 -1.583134
H	 1.912104	 -4.974463	 -1.685288
C	 0.640178	 -2.853491	 -0.361866
H	 2.731477	 -2.349861	 -0.393840
H	 2.015749	 -2.519115	 -1.977006
C	 0.113298	 -1.420414	 -0.302504
H	 0.661105	 -3.272485	 0.638638
H	 -0.050026	 -3.463426	 -0.942283
C	 -1.311023	 -1.277304	 0.237018
H	 0.787612	 -0.816919	 0.300257
H	 0.144948	 -0.999473	 -1.303641
C	 -2.041121	 -0.006551	 -0.194127
H	 -1.888548	 -2.136293	 -0.093331
H	 -1.289731	 -1.328757	 1.323321
C	 -3.489218	 0.042606	 0.286507
H	 -2.022185	 0.066287	 -1.279394
H	 -1.518764	 0.869305	 0.178730
C	 -4.219984	 1.311773	 -0.139038
H	 -4.022855	 -0.824300	 -0.093339
H	 -3.510372	 -0.038577	 1.370031
H	 -4.244251	 1.405725	 -1.219696
H	 -5.244345	 1.313233	 0.215630
H	 -3.732090	 2.196311	 0.257073

14 10 13 16 F
