%nprocshared=1
%mem=2GB
#HF/6-31G* nosymm scf=tight 

Mol

0 1
O	 -2.042549	 -1.228399	 -0.269030
C	 -1.653912	 -0.146171	 0.050137
C	 -0.332303	 0.024011	 0.778412
C	 -2.438579	 1.106236	 -0.272369
C	 -0.437700	 1.109646	 1.861076
H	 -0.020041	 -0.915456	 1.225933
H	 0.412317	 0.313931	 0.045329
C	 0.882486	 1.334939	 2.599577
H	 -1.208852	 0.838664	 2.580087
H	 -0.759966	 2.035020	 1.393134
C	 0.782917	 2.420289	 3.670702
H	 1.204137	 0.402297	 3.057993
H	 1.652712	 1.605108	 1.881018
H	 0.043562	 2.162427	 4.423639
H	 0.494384	 3.373195	 3.236925
H	 1.733563	 2.560432	 4.175340
H	 -3.277823	 0.863061	 -0.908988
H	 -1.806773	 1.843019	 -0.759671
H	 -2.802853	 1.554979	 0.648059

11 8 5 9 F
9 5 3 2 F
