%nprocshared=4
%mem=2GB
#HF/cc-pVTZ nosymm scf=tight opt=ModRedundant

Mol

0 1
O	 1.972934	 -1.506893	 -2.527021
C	 1.344500	 -2.493322	 -2.321741
C	 0.012327	 -2.470090	 -1.600209
C	 1.837965	 -3.849874	 -2.771721
C	 -0.444366	 -1.085272	 -1.163700
H	 -0.723421	 -2.929541	 -2.256446
H	 0.091619	 -3.137211	 -0.744832
C	 -1.788920	 -1.111316	 -0.442169
H	 -0.505153	 -0.440569	 -2.033055
H	 0.310721	 -0.648385	 -0.520189
C	 -2.258482	 0.271340	 0.000669
H	 -2.540740	 -1.552914	 -1.092577
H	 -1.721035	 -1.761329	 0.427392
C	 -2.305585	 1.289336	 -1.135201
H	 -1.600712	 0.639186	 0.784341
H	 -3.245793	 0.188147	 0.448356
C	 -3.572900	 2.137654	 -1.127623
H	 -1.437227	 1.939525	 -1.070796
H	 -2.226298	 0.769809	 -2.086371
H	 -3.663669	 2.697063	 -0.202494
H	 -3.574663	 2.849112	 -1.945453
H	 -4.458537	 1.518747	 -1.225834
H	 1.119324	 -4.305164	 -3.444263
H	 2.788615	 -3.746340	 -3.271657
H	 1.944252	 -4.510853	 -1.918578

15 11 14 18 F
