%nprocshared=4
%mem=2GB
#HF/cc-pVTZ nosymm scf=tight opt=ModRedundant

Mol

0 1
H	 2.288570	 -0.834994	 -0.842124
C	 1.554800	 -1.137659	 -0.103792
N	 0.526300	 -0.128137	 0.000000
H	 2.066375	 -1.239580	 0.844861
H	 1.177392	 -2.119917	 -0.395859
C	 -0.247113	 0.037112	 -1.209233
H	 -0.078428	 -0.336173	 0.764647
H	 -0.996493	 -0.743733	 -1.271440
H	 0.397975	 -0.057351	 -2.073512
H	 -0.763794	 0.997171	 -1.271673

2 3 6 8 F
