%nprocshared=1
%mem=2GB
#HF/6-31G* nosymm scf=tight 

Mol

0 1
O	 3.225979	 0.970355	 -0.599647
C	 2.701189	 0.057885	 -0.047330
C	 1.245376	 -0.013843	 0.345420
O	 3.347903	 -1.046386	 0.304773
C	 0.455112	 1.231400	 -0.050772
H	 0.838542	 -0.913825	 -0.103701
H	 1.208210	 -0.175333	 1.419774
C	 -0.998893	 1.219485	 0.433193
H	 0.482531	 1.345121	 -1.130325
H	 0.957290	 2.103070	 0.354729
C	 -1.358899	 0.060077	 1.366617
H	 -1.644432	 1.174998	 -0.440893
H	 -1.224507	 2.163735	 0.926649
C	 -2.844190	 0.030174	 1.732697
H	 -1.087148	 -0.880522	 0.889916
H	 -0.773095	 0.119531	 2.281095
C	 -3.214541	 -1.121227	 2.669313
H	 -3.437559	 -0.042790	 0.822849
H	 -3.119040	 0.974650	 2.199733
C	 -4.700198	 -1.146204	 3.026943
H	 -2.939642	 -2.065737	 2.204583
H	 -2.625590	 -1.047522	 3.581171
H	 -4.931382	 -1.972903	 3.691569
H	 -5.315572	 -1.254395	 2.138233
H	 -4.999126	 -0.228056	 3.524860
C	 4.728119	 -1.109107	 -0.004993
H	 4.882018	 -1.033965	 -1.071845
H	 5.068212	 -2.067527	 0.355250
H	 5.265056	 -0.311663	 0.488280

21 17 14 11 F
17 14 11 15 F
15 11 8 5 F
6 3 5 9 F
2 4 26 27 F
1 2 4 26 F
6 3 2 1 F
