%nprocshared=4
%mem=2GB
#HF/cc-pVTZ nosymm scf=tight opt=ModRedundant

Mol

0 1
H	 6.830139	 -7.991321	 -3.594019
O	 6.919685	 -7.395448	 -2.873778
C	 7.556133	 -6.217560	 -3.294236
C	 7.922790	 -6.220209	 -4.770801
H	 6.856177	 -5.416929	 -3.096673
H	 8.441224	 -6.028020	 -2.689968
C	 6.796803	 -6.676594	 -5.695850
H	 8.242308	 -5.220411	 -5.049133
H	 8.782038	 -6.873869	 -4.900488
C	 6.458222	 -8.157255	 -5.528989
H	 7.078578	 -6.484222	 -6.725704
H	 5.905869	 -6.082673	 -5.498923
C	 5.286514	 -8.652085	 -6.378988
H	 7.340239	 -8.752462	 -5.752600
H	 6.226272	 -8.342445	 -4.483823
C	 3.924402	 -8.071544	 -6.003001
H	 5.491473	 -8.407197	 -7.417520
H	 5.240822	 -9.737712	 -6.329172
C	 3.425479	 -8.551518	 -4.642446
H	 3.197370	 -8.341714	 -6.765826
H	 3.969507	 -6.986682	 -5.996351
C	 4.477134	 -8.438785	 -3.543717
H	 2.546996	 -7.977974	 -4.359791
H	 3.099901	 -9.585147	 -4.724127
H	 4.800214	 -7.411002	 -3.415196
H	 4.090032	 -8.784694	 -2.592084
H	 5.354511	 -9.032344	 -3.778769

4 3 2 1 F
