%nprocshared=4
%mem=2GB
#HF/cc-pVTZ nosymm scf=tight opt=ModRedundant

Mol

0 1
H	 3.721907	 -0.933076	 -0.066039
O	 2.824271	 -1.154299	 0.131461
C	 2.076458	 -0.067370	 -0.038225
C	 0.626018	 -0.337582	 0.258241
O	 2.538288	 0.965419	 -0.381593
C	 -0.267326	 0.883135	 0.076490
H	 0.325620	 -1.161483	 -0.378003
H	 0.574537	 -0.713685	 1.275261
C	 -1.726822	 0.642622	 0.463839
H	 -0.210803	 1.217591	 -0.953497
H	 0.129920	 1.693110	 0.675679
C	 -2.682132	 1.788247	 0.133739
H	 -1.764878	 0.458940	 1.533450
H	 -2.082224	 -0.269530	 -0.010624
C	 -4.099922	 1.536190	 0.636547
H	 -2.302329	 2.706771	 0.573168
H	 -2.713892	 1.952597	 -0.938612
H	 -4.756074	 2.363393	 0.391836
H	 -4.115880	 1.408154	 1.713603
H	 -4.518725	 0.639399	 0.192110

12 9 6 10 F
