%nprocshared=4
%mem=2GB
#HF/cc-pVTZ nosymm scf=tight opt=ModRedundant

Mol

0 1
H	 2.370153	 -0.769701	 -0.518787
C	 1.637382	 0.012513	 -0.623754
O	 0.462329	 -0.453336	 -0.000137
H	 1.470417	 0.204509	 -1.676123
H	 2.004324	 0.910436	 -0.142790
C	 -0.590565	 0.341382	 0.000062
O	 -1.693898	 -0.053880	 0.000252
H	 -0.340426	 1.403822	 0.000200

2 3 6 7 F
