%nprocshared=4
%mem=2GB
#HF/cc-pVTZ nosymm scf=tight opt=ModRedundant

Mol

0 1
O	 -4.741559	 3.677983	 3.374923
C	 -3.562142	 3.759984	 3.486103
C	 -2.630085	 2.634875	 3.084568
C	 -2.907686	 5.004973	 4.041002
C	 -2.930863	 2.021940	 1.724174
H	 -1.614819	 3.023858	 3.116108
H	 -2.673335	 1.879345	 3.865793
C	 -1.728415	 2.059278	 0.785113
H	 -3.765952	 2.546898	 1.274551
H	 -3.260235	 0.998194	 1.860527
C	 -2.016889	 1.447817	 -0.582816
H	 -1.402076	 3.088761	 0.654952
H	 -0.894206	 1.532658	 1.243402
C	 -3.229747	 2.059742	 -1.277984
H	 -2.170057	 0.377165	 -0.471651
H	 -1.142835	 1.564192	 -1.218909
C	 -4.556318	 1.612033	 -0.673371
H	 -3.161081	 3.143307	 -1.232029
H	 -3.208797	 1.798405	 -2.332584
H	 -4.622749	 1.889772	 0.373285
H	 -5.395860	 2.063990	 -1.189050
H	 -4.670935	 0.534986	 -0.735634
H	 -2.221465	 5.423139	 3.312795
H	 -3.662109	 5.735040	 4.290482
H	 -2.329392	 4.760820	 4.925313

9 5 3 6 F
