%nprocshared=4
%mem=2GB
#HF/6-31G* nosymm scf=tight opt=ModRedundant

Mol

0 1
H	 -2.646374	 -0.642757	 1.268656
C	 -2.083525	 -0.384536	 0.393091
O	 -0.807605	 -0.127164	 0.768327
F	 -2.118945	 -1.383102	 -0.486752
F	 -2.621877	 0.670592	 -0.209486
C	 0.084052	 0.273579	 -0.209957
C	 0.229868	 1.784771	 -0.086678
Cl	 -0.506220	 -0.166854	 -1.820799
H	 1.055821	 -0.171331	 -0.085482
F	 1.079153	 2.239182	 -0.983541
F	 0.706327	 2.068954	 1.109008
F	 -0.914550	 2.406052	 -0.235983

9 6 3 2 F
