%nprocshared=4
%mem=2GB
#HF/cc-pVTZ nosymm scf=tight opt=ModRedundant

Mol

0 1
O	 -2.440701	 -0.934798	 -0.415053
C	 -1.922978	 0.063265	 -0.045005
C	 -2.632749	 1.372204	 0.158357
O	 -0.637375	 0.157174	 0.243149
H	 -2.187724	 2.129143	 -0.474664
H	 -3.677681	 1.257276	 -0.079438
H	 -2.516788	 1.693160	 1.185542
C	 0.162530	 -1.009518	 0.097799
C	 1.587210	 -0.664190	 0.477086
H	 0.096803	 -1.356267	 -0.924704
H	 -0.233803	 -1.785900	 0.736810
C	 2.645894	 -1.301801	 -0.418684
H	 1.736040	 -0.988643	 1.503397
H	 1.700408	 0.415625	 0.472160
C	 4.067091	 -0.954353	 0.011543
H	 2.518933	 -2.381085	 -0.407536
H	 2.489298	 -0.983658	 -1.442943
H	 4.797594	 -1.422474	 -0.637775
H	 4.264053	 -1.287759	 1.025169
H	 4.234590	 0.117042	 -0.021228

12 9 8 10 F
