%nprocshared=4
%mem=2GB
#HF/cc-pVTZ nosymm scf=tight opt=ModRedundant

Mol

0 1
H	 2.646708	 0.758099	 0.000000
O	 2.258158	 -0.097743	 0.000000
C	 0.911162	 -0.015915	 0.000000
C	 0.271874	 0.022920	 1.228253
C	 0.172168	 0.028977	 -1.167173
H	 0.861173	 -0.012879	 2.123209
C	 -1.102789	 0.106429	 1.277267
H	 0.668158	 -0.001153	 -2.120450
C	 -1.207431	 0.112786	 -1.102791
H	 -1.592821	 0.136198	 2.231930
C	 -1.854178	 0.152075	 0.114626
H	 -1.773741	 0.147189	 -2.014073
H	 -2.923546	 0.217037	 0.160761

4 3 2 1 F
