%nprocshared=4
%mem=2GB
#HF/cc-pVTZ nosymm scf=tight opt=ModRedundant

Mol

0 1
O	 -0.832168	 0.966065	 -2.594365
C	 0.131484	 1.267388	 -1.968258
C	 0.111037	 1.265909	 -0.452465
C	 1.427641	 1.647636	 -2.643652
C	 0.376695	 -0.140025	 0.100361
H	 -0.869204	 1.600775	 -0.137659
H	 0.849484	 1.960039	 -0.065497
C	 1.630207	 -0.772146	 -0.501001
H	 0.466225	 -0.070204	 1.177087
H	 -0.478014	 -0.780981	 -0.101995
C	 2.907848	 -0.545876	 0.309149
H	 1.772784	 -0.391628	 -1.509394
H	 1.468529	 -1.842059	 -0.599744
C	 3.373802	 0.906639	 0.372125
H	 3.699140	 -1.146831	 -0.127906
H	 2.764321	 -0.923458	 1.318191
H	 3.519798	 1.311927	 -0.623875
H	 4.316899	 0.983758	 0.900700
H	 2.661122	 1.540651	 0.885346
H	 1.626386	 2.699990	 -2.467442
H	 1.360977	 1.466558	 -3.705413
H	 2.256818	 1.090335	 -2.222380

3 5 8 12 F
