%nprocshared=4
%mem=2GB
#HF/cc-pVTZ nosymm scf=tight opt=ModRedundant

Mol

0 1
H	 -3.268214	 -0.875720	 0.463107
C	 -2.806015	 0.000007	 0.024886
N	 -1.391133	 0.000016	 0.301321
H	 -3.029448	 0.000055	 -1.045738
H	 -3.268126	 0.875758	 0.463150
C	 -0.654356	 -0.860068	 -0.599229
C	 -1.099772	 -0.328024	 1.680100
H	 -0.970285	 -1.902981	 -0.502421
H	 -0.852285	 -0.551779	 -1.618968
C	 0.835890	 -0.768475	 -0.329431
H	 -1.622865	 0.368674	 2.324363
H	 -1.446061	 -1.334669	 1.932287
C	 0.390473	 -0.236431	 1.949898
H	 1.358983	 -1.465173	 -0.973694
H	 1.182179	 0.238169	 -0.581618
N	 1.127251	 -1.096515	 1.049348
H	 0.588403	 -0.544720	 2.969636
H	 0.706403	 0.806481	 1.853089
C	 2.542133	 -1.096506	 1.325783
H	 3.046349	 -1.797666	 0.672557
H	 2.718873	 -1.406599	 2.348117
H	 3.001974	 -0.114027	 1.186360

6 3 2 4 F
