%nprocshared=4
%mem=2GB
#HF/cc-pVTZ nosymm scf=tight opt=ModRedundant

Mol

0 1
H	 -3.162190	 0.493205	 -0.000107
C	 -2.363908	 -0.234727	 0.000005
O	 -1.158738	 0.454634	 -0.000087
H	 -2.464314	 -0.863616	 -0.882153
H	 -2.464327	 -0.863359	 0.882345
C	 -0.028611	 -0.359694	 0.000037
C	 1.212847	 0.509314	 -0.000053
H	 -0.034155	 -1.007047	 -0.877198
H	 -0.034195	 -1.006836	 0.877430
C	 1.248110	 1.474492	 1.179582
H	 2.085203	 -0.134580	 0.017906
H	 1.249363	 1.059349	 -0.933905
H	 1.236845	 0.943315	 2.125526
H	 2.144372	 2.082050	 1.154900
H	 0.395593	 2.145409	 1.167191

11 7 6 8 F
