%nprocshared=1
%mem=2GB
#HF/6-31G* nosymm scf=tight 

Mol

0 1
O	 3.225979	 0.970355	 -0.599647
C	 2.701189	 0.057885	 -0.047330
C	 1.245376	 -0.013843	 0.345420
O	 3.347903	 -1.046386	 0.304773
C	 0.455112	 1.231400	 -0.050772
H	 0.838542	 -0.913825	 -0.103701
H	 1.208210	 -0.175333	 1.419774
C	 -0.998893	 1.219485	 0.433193
H	 0.482531	 1.345121	 -1.130325
H	 0.957290	 2.103070	 0.354729
C	 -1.426559	 2.460176	 1.222430
H	 -1.137383	 0.343032	 1.061981
H	 -1.663641	 1.086890	 -0.419180
C	 -2.848670	 2.351922	 1.776400
H	 -0.731182	 2.617781	 2.045492
H	 -1.361217	 3.345190	 0.593581
C	 -3.288689	 3.588278	 2.562491
H	 -2.919012	 1.475296	 2.418127
H	 -3.543290	 2.183591	 0.954897
C	 -4.708548	 3.470544	 3.115518
H	 -2.595070	 3.758526	 3.383193
H	 -3.223215	 4.464920	 1.921404
H	 -4.991367	 4.361694	 3.667307
H	 -4.798000	 2.622559	 3.788656
H	 -5.430821	 3.333784	 2.315585
C	 4.728119	 -1.109107	 -0.004993
H	 4.882018	 -1.033965	 -1.071845
H	 5.068212	 -2.067527	 0.355250
H	 5.265056	 -0.311663	 0.488280

21 17 14 11 F
17 14 11 15 F
15 11 8 5 F
6 3 5 9 F
2 4 26 27 F
1 2 4 26 F
6 3 2 1 F
