%nprocshared=1
%mem=2GB
#HF/6-31G* nosymm scf=tight opt=ModRedundant

Mol

0 1
H	 -3.420663	 1.227371	 -1.044276
O	 -3.452007	 0.283848	 -0.965577
C	 -3.181085	 -0.079926	 0.364119
C	 -1.765924	 0.277073	 0.805136
H	 -3.327791	 -1.152017	 0.410903
H	 -3.905698	 0.375695	 1.036898
C	 -0.677594	 -0.417312	 -0.014550
H	 -1.637766	 1.358238	 0.744969
H	 -1.659588	 0.017670	 1.857098
C	 0.738335	 -0.034840	 0.421385
H	 -0.814977	 -0.178223	 -1.064632
H	 -0.802730	 -1.495410	 0.071702
C	 0.830719	 1.401488	 0.943414
H	 1.072649	 -0.730688	 1.187184
H	 1.420854	 -0.154816	 -0.419077
C	 2.246580	 1.861182	 1.309712
H	 0.182580	 1.510959	 1.811531
H	 0.435580	 2.073500	 0.184414
C	 2.867547	 1.123077	 2.497149
H	 2.215109	 2.923744	 1.538320
H	 2.894231	 1.757544	 0.441375
H	 2.234889	 1.198930	 3.377564
H	 3.835535	 1.544965	 2.749829
H	 3.017594	 0.069210	 2.287356

13 10 7 11 F
