%nprocshared=4
%mem=2GB
#HF/cc-pVTZ nosymm scf=tight opt=ModRedundant

Mol

0 1
H	 -3.268214	 -0.875720	 0.463107
C	 -2.806015	 0.000007	 0.024886
N	 -1.391133	 0.000016	 0.301321
H	 -3.029448	 0.000055	 -1.045738
H	 -3.268126	 0.875758	 0.463150
C	 -0.806351	 -1.317778	 0.178747
C	 -1.082012	 0.582628	 1.589164
H	 -1.243847	 -2.016684	 0.897760
H	 -1.009473	 -1.700532	 -0.814392
C	 0.694242	 -1.261088	 0.395583
H	 -1.486368	 1.587243	 1.625688
H	 -1.538295	 0.013270	 2.404323
C	 0.418582	 0.639318	 1.806000
H	 1.098599	 -2.265703	 0.359059
H	 1.150526	 -0.691730	 -0.419576
N	 1.003364	 -0.678476	 1.683426
H	 0.621704	 1.022072	 2.799139
H	 0.856078	 1.338224	 1.086987
C	 2.418246	 -0.678467	 1.959861
H	 2.802944	 -1.689828	 1.918377
H	 2.600253	 -0.292846	 2.955216
H	 2.989091	 -0.070478	 1.252300

6 3 2 4 F
