%nprocshared=4
%mem=2GB
#HF/cc-pVTZ nosymm scf=tight opt=ModRedundant

Mol

0 1
H	 -3.962728	 -0.414018	 -0.841437
C	 -2.913157	 -0.265376	 -0.672674
C	 -2.420041	 1.011994	 -0.475686
C	 -2.058229	 -1.351050	 -0.652829
H	 -3.084222	 1.854207	 -0.491222
C	 -1.071222	 1.202203	 -0.258884
H	 -2.441636	 -2.341253	 -0.805702
C	 -0.707390	 -1.162217	 -0.435865
H	 -0.672582	 2.184207	 -0.104572
C	 -0.209972	 0.116062	 -0.238155
H	 -0.042592	 -2.000857	 -0.419890
C	 1.238974	 0.374429	 0.000004
O	 1.489662	 1.615739	 0.371882
O	 2.085004	 -0.445759	 -0.129239
C	 2.796996	 1.900860	 0.829204
H	 3.033053	 1.306265	 1.698749
H	 2.800044	 2.948751	 1.081206
H	 3.522142	 1.700092	 0.055089

13 12 10 6 F
