%nprocshared=1
%mem=2GB
#HF/6-31G* nosymm scf=tight opt=ModRedundant

Mol

0 1
H	 -1.836216	 1.387520	 -0.000064
C	 -1.301823	 0.443321	 -0.000031
O	 -0.003969	 0.658512	 0.000451
O	 -1.829879	 -0.616434	 -0.000857
C	 0.571958	 1.192754	 1.192122
C	 2.057457	 1.348150	 0.948269
H	 0.367762	 0.516997	 2.011252
H	 0.099707	 2.139927	 1.413792
H	 2.512163	 0.391000	 0.719928
H	 2.535440	 1.753065	 1.834164
H	 2.242982	 2.021766	 0.119589

5 3 2 4 F
