%nprocshared=1
%mem=2GB
#HF/6-31G* nosymm scf=tight opt=ModRedundant

Mol

0 1
H	 -3.161837	 0.500524	 -0.000234
C	 -2.367097	 -0.232926	 -0.000000
O	 -1.158440	 0.455814	 -0.000122
H	 -2.468853	 -0.861886	 -0.882833
H	 -2.468942	 -0.861421	 0.883154
C	 -0.029776	 -0.365156	 0.000148
C	 1.212217	 0.508981	 0.000007
H	 -0.036772	 -1.013236	 -0.877259
H	 -0.036869	 -1.012778	 0.877897
C	 0.965430	 1.875107	 0.638503
H	 2.002046	 -0.015075	 0.529342
H	 1.548485	 0.629245	 -1.025254
H	 0.651052	 1.777799	 1.673936
H	 1.867406	 2.477676	 0.624511
H	 0.193663	 2.426521	 0.108672

11 7 6 8 F
