%nprocshared=4
%mem=2GB
#HF/cc-pVTZ nosymm scf=tight opt=ModRedundant

Mol

0 1
O	 -0.694481	 1.313155	 -0.204815
C	 -0.862519	 0.151932	 -0.046791
C	 -2.171428	 -0.477048	 0.339095
O	 0.085519	 -0.757083	 -0.192238
H	 -2.467997	 -1.191667	 -0.417688
H	 -2.923379	 0.287970	 0.444097
H	 -2.053854	 -1.015120	 1.270901
C	 0.724313	 -0.883763	 -1.457296
C	 1.868761	 0.096852	 -1.607407
H	 -0.006699	 -0.750952	 -2.239472
H	 1.084190	 -1.901438	 -1.481358
H	 2.371747	 -0.073948	 -2.552544
H	 1.508511	 1.116369	 -1.593695
H	 2.590230	 -0.032052	 -0.809623

8 4 2 1 F
