%nprocshared=4
%mem=2GB
#HF/cc-pVTZ nosymm scf=tight opt=ModRedundant

Mol

0 1
O	 -2.081319	 -0.951530	 -0.502732
N	 -1.613558	 0.006676	 0.014756
C	 -0.329345	 -0.171618	 0.743966
O	 -2.068523	 1.100482	 -0.024385
C	 0.236429	 1.191283	 1.122764
H	 0.323694	 -0.703957	 0.072718
H	 -0.559037	 -0.765871	 1.612491
C	 1.556915	 1.055363	 1.876428
H	 0.382539	 1.774610	 0.221132
H	 -0.487964	 1.714873	 1.735826
C	 2.141642	 2.406087	 2.274070
H	 2.271680	 0.519755	 1.258632
H	 1.404233	 0.451584	 2.766117
H	 2.336436	 3.019672	 1.401564
H	 1.461501	 2.951920	 2.918422
H	 3.076045	 2.281488	 2.807482

5 3 2 1 F
