%nprocshared=4
%mem=2GB
#HF/cc-pVTZ nosymm scf=tight opt=ModRedundant

Mol

0 1
H	 2.971780	 1.596698	 0.566214
C	 2.347200	 0.718351	 0.442955
C	 0.901988	 1.130673	 0.198298
H	 2.418687	 0.116632	 1.340587
H	 2.753845	 0.140893	 -0.377969
N	 0.000297	 0.000045	 0.046090
H	 0.573698	 1.717678	 1.044920
H	 0.846808	 1.794258	 -0.669192
C	 -1.359159	 0.315706	 0.454404
C	 0.058718	 -0.581056	 -1.285613
C	 -2.416729	 -0.286720	 -0.460525
H	 -1.478729	 1.390261	 0.442008
H	 -1.539692	 0.003361	 1.486761
C	 -0.294022	 -2.062058	 -1.311036
H	 1.065922	 -0.470358	 -1.662902
H	 -0.585759	 -0.033957	 -1.979331
H	 -2.285276	 0.073129	 -1.473515
H	 -2.371743	 -1.368476	 -0.483209
H	 -3.408658	 -0.007405	 -0.121593
H	 0.385251	 -2.620259	 -0.678654
H	 -1.302358	 -2.249780	 -0.963480
H	 -0.219206	 -2.447854	 -2.322162

3 6 9 11 F
