%nprocshared=4
%mem=2GB
#HF/cc-pVTZ nosymm scf=tight opt=ModRedundant

Mol

0 1
H	 -3.436473	 1.252944	 -1.023892
O	 -3.458596	 0.315260	 -0.960865
C	 -3.176635	 -0.080824	 0.355601
C	 -1.763371	 0.265266	 0.799691
H	 -3.321825	 -1.153438	 0.379502
H	 -3.895468	 0.357385	 1.043382
C	 -1.588038	 1.720500	 1.223807
H	 -1.479340	 -0.393134	 1.619264
H	 -1.086658	 0.037297	 -0.020356
C	 -0.173073	 2.042186	 1.697479
H	 -2.296763	 1.951101	 2.011490
H	 -1.842968	 2.365793	 0.386482
C	 -0.003012	 3.501366	 2.115715
H	 0.078281	 1.387219	 2.526170
H	 0.534374	 1.814080	 0.902908
C	 1.418657	 3.893040	 2.522285
H	 -0.682620	 3.720577	 2.936038
H	 -0.311847	 4.136790	 1.290198
C	 1.926609	 3.220698	 3.795503
H	 1.451173	 4.969294	 2.661550
H	 2.098913	 3.673789	 1.703383
H	 1.262414	 3.417676	 4.631039
H	 2.909297	 3.593457	 4.061242
H	 2.006517	 2.146190	 3.683017

7 4 3 2 F
