%nprocshared=1
%mem=2GB
#HF/6-31G* nosymm scf=tight 

Mol

0 1
O	 -0.381637	 0.232298	 -0.809428
C	 0.486307	 0.169203	 0.000779
C	 1.608116	 -0.841643	 0.000302
O	 0.582718	 0.994978	 1.033450
C	 2.990107	 -0.200498	 -0.000684
H	 1.468623	 -1.481519	 -0.865924
H	 1.469683	 -1.481289	 0.866878
H	 3.129736	 0.423364	 -0.875135
H	 3.757882	 -0.966877	 -0.001197
H	 3.130964	 0.423383	 0.873533
C	 -0.412665	 2.004789	 1.163431
C	 -0.086518	 2.806250	 2.405847
H	 -1.384205	 1.535045	 1.234389
H	 -0.406133	 2.622676	 0.275870
H	 -0.091710	 2.172173	 3.285095
H	 -0.823759	 3.590561	 2.543623
H	 0.891688	 3.265857	 2.321408

2 4 11 13 F
11 4 2 3 F
