%nprocshared=1
%mem=2GB
#HF/6-31G* nosymm scf=tight 

Mol

0 1
O	 3.476979	 1.156419	 0.481053
C	 2.835298	 0.156971	 0.530156
C	 1.362172	 0.071466	 0.848553
O	 3.347903	 -1.046386	 0.304773
C	 0.723488	 1.434932	 1.103816
H	 0.888344	 -0.451885	 0.024670
H	 1.255802	 -0.578411	 1.713447
C	 -0.746241	 1.357737	 1.530934
H	 0.815560	 2.046784	 0.211471
H	 1.291311	 1.943680	 1.875292
C	 -1.702977	 0.828568	 0.458672
H	 -1.065999	 2.356343	 1.819492
H	 -0.831859	 0.743498	 2.426138
C	 -3.168933	 0.874298	 0.894425
H	 -1.579922	 1.414330	 -0.451031
H	 -1.445595	 -0.195911	 0.199503
C	 -4.133697	 0.343031	 -0.167233
H	 -3.438534	 1.899356	 1.143032
H	 -3.290607	 0.297571	 1.810002
C	 -5.595883	 0.395717	 0.274284
H	 -4.012717	 0.917585	 -1.083145
H	 -3.868507	 -0.682940	 -0.413885
H	 -6.254729	 0.012697	 -0.498907
H	 -5.902267	 1.414347	 0.495002
H	 -5.756708	 -0.198030	 1.169758
C	 4.728119	 -1.109107	 -0.004993
H	 4.882018	 -1.033965	 -1.071845
H	 5.068212	 -2.067527	 0.355250
H	 5.265056	 -0.311663	 0.488280

21 17 14 11 F
17 14 11 15 F
15 11 8 5 F
6 3 5 9 F
11 8 5 9 F
1 2 4 26 F
6 3 2 1 F
