%nprocshared=4
%mem=2GB
#HF/cc-pVTZ nosymm scf=tight opt=ModRedundant

Mol

0 1
H	 -2.362939	 -1.309000	 -0.383250
C	 -1.359344	 -1.272457	 0.020748
C	 -0.684082	 0.000127	 -0.464918
H	 -0.825835	 -2.151141	 -0.318537
H	 -1.416276	 -1.292399	 1.099455
C	 -1.359089	 1.272668	 0.021259
N	 0.742439	 -0.000109	 0.007333
H	 -0.596914	 0.000345	 -1.538146
H	 -2.362696	 1.309620	 -0.382686
H	 -0.825392	 2.151374	 -0.317674
H	 -1.415983	 1.292181	 1.099973
O	 1.316677	 1.036178	 0.005133
O	 1.203855	 -1.036545	 0.352564

12 7 3 8 F
