%nprocshared=4
%mem=2GB
#HF/cc-pVTZ nosymm scf=tight opt=ModRedundant

Mol

0 1
H	 3.833227	 0.453099	 -0.494481
N	 3.044995	 -0.158332	 -0.473052
C	 1.860978	 0.530248	 0.016256
H	 3.282791	 -0.924629	 0.121583
C	 0.644130	 -0.381765	 -0.031064
H	 1.689174	 1.389324	 -0.623571
H	 1.982202	 0.914429	 1.029994
C	 -0.678115	 0.376691	 0.025731
H	 0.693998	 -0.977147	 -0.936845
H	 0.693309	 -1.082142	 0.800523
C	 -1.900706	 -0.535531	 -0.022488
H	 -0.725296	 1.079516	 -0.802982
H	 -0.715474	 0.974884	 0.933278
C	 -3.220513	 0.226854	 0.028039
H	 -1.865036	 -1.134397	 -0.928236
H	 -1.857948	 -1.236381	 0.806820
H	 -3.309098	 0.911849	 -0.808725
H	 -4.066838	 -0.449485	 -0.008086
H	 -3.301685	 0.809374	 0.939860

6 3 5 9 F
