%nprocshared=4
%mem=2GB
#HF/cc-pVTZ nosymm scf=tight opt=ModRedundant

Mol

0 1
H	 2.614283	 2.028610	 0.296620
O	 3.358864	 1.662087	 -0.142800
C	 3.565468	 0.338079	 0.273842
C	 2.533667	 -0.637565	 -0.272227
H	 4.548038	 0.064914	 -0.086598
H	 3.593945	 0.282242	 1.360360
C	 1.114816	 -0.402372	 0.240993
H	 2.544552	 -0.580764	 -1.356576
H	 2.850574	 -1.642962	 -0.005497
C	 0.830023	 -1.138109	 1.549589
H	 0.403206	 -0.719453	 -0.514040
H	 0.958109	 0.664591	 0.390385
C	 -0.553514	 -0.879135	 2.148764
H	 0.959324	 -2.206403	 1.393844
H	 1.580149	 -0.846641	 2.279539
C	 -1.723789	 -1.428139	 1.334643
H	 -0.584168	 -1.322949	 3.140035
H	 -0.686857	 0.190609	 2.293752
C	 -3.073047	 -1.232517	 2.021407
H	 -1.566245	 -2.488951	 1.152089
H	 -1.755680	 -0.952961	 0.358840
C	 -4.244044	 -1.776169	 1.209557
H	 -3.054044	 -1.716614	 2.993964
H	 -3.228204	 -0.173929	 2.212143
H	 -4.134625	 -2.840485	 1.029284
H	 -5.184846	 -1.623744	 1.726050
H	 -4.313579	 -1.284658	 0.244708

10 7 4 8 F
