%nprocshared=1
%mem=2GB
#HF/6-31G* nosymm scf=tight opt=ModRedundant

Mol

0 1
H	 -2.172150	 0.880146	 0.502514
C	 -2.018062	 -0.000025	 -0.114509
O	 -0.774054	 0.001095	 -0.743181
H	 -2.760490	 0.003458	 -0.901350
H	 -2.173624	 -0.884374	 0.496163
C	 0.056783	 1.144735	 -0.651909
C	 1.299131	 0.753028	 -1.448870
C	 -0.611308	 2.365621	 -1.292441
C	 0.439364	 1.435464	 0.802816
H	 1.027990	 0.520674	 -2.472552
H	 1.759057	 -0.127379	 -1.014444
H	 2.027992	 1.556992	 -1.456949
H	 -0.943129	 2.127786	 -2.297606
H	 0.090889	 3.190893	 -1.351152
H	 -1.467982	 2.709259	 -0.722724
H	 0.845994	 0.544414	 1.269434
H	 1.191819	 2.216225	 0.844746
H	 -0.408808	 1.771234	 1.389752

6 3 2 5 F
