%nprocshared=4
%mem=2GB
#HF/cc-pVTZ nosymm scf=tight opt=ModRedundant

Mol

0 1
O	 -0.694481	 1.313155	 -0.204815
C	 -0.862519	 0.151932	 -0.046791
C	 -2.171428	 -0.477048	 0.339095
O	 0.085519	 -0.757083	 -0.192238
H	 -2.467997	 -1.191667	 -0.417688
H	 -2.923379	 0.287970	 0.444097
H	 -2.053854	 -1.015120	 1.270901
C	 -0.238647	 -2.125303	 0.025412
C	 -0.818341	 -2.767993	 -1.217490
H	 -0.921806	 -2.200782	 0.856924
H	 0.698117	 -2.588582	 0.296698
H	 -0.989892	 -3.822778	 -1.034596
H	 -1.761686	 -2.311693	 -1.484459
H	 -0.133593	 -2.674069	 -2.051692

8 4 2 1 F
