%nprocshared=4
%mem=2GB
#HF/cc-pVTZ nosymm scf=tight opt=ModRedundant

Mol

0 1
H	 -2.362812	 -0.831741	 -0.859882
N	 -1.641648	 -0.142254	 -0.870037
C	 -0.561396	 -0.500007	 0.035200
H	 -2.058918	 0.724603	 -0.602117
C	 0.575129	 0.507849	 -0.048832
H	 -0.193084	 -1.477804	 -0.257164
H	 -0.886963	 -0.585975	 1.073001
C	 1.951750	 -0.141983	 0.035101
H	 0.478254	 1.061643	 -0.975981
H	 0.467676	 1.231891	 0.755499
H	 2.101550	 -0.848142	 -0.774949
H	 2.738260	 0.600794	 -0.026526
H	 2.078939	 -0.679792	 0.968824

6 3 5 9 F
