%nprocshared=4
%mem=2GB
#HF/cc-pVTZ nosymm scf=tight opt=ModRedundant

Mol

0 1
H	 -2.266619	 1.169943	 0.000098
O	 -1.438073	 1.611259	 0.000041
C	 -0.408657	 0.734701	 0.000005
C	 0.866504	 1.268905	 -0.000079
C	 -0.607242	 -0.641045	 0.000087
H	 0.977953	 2.335446	 -0.000126
C	 1.963238	 0.433356	 -0.000102
C	 0.512776	 -1.456574	 0.000063
C	 -1.999429	 -1.222438	 0.000194
H	 2.950154	 0.855229	 -0.000173
C	 1.792045	 -0.937455	 -0.000039
H	 0.376124	 -2.522076	 0.000116
H	 -2.563112	 -0.918851	 -0.877540
H	 -1.962052	 -2.302273	 0.000254
H	 -2.563016	 -0.918749	 0.877957
H	 2.640511	 -1.593561	 -0.000061

4 3 2 1 F
