%nprocshared=4
%mem=2GB
#HF/cc-pVTZ nosymm scf=tight opt=ModRedundant

Mol

0 1
H	 -2.739889	 1.763666	 1.671796
C	 -2.554308	 0.756485	 1.359617
C	 -1.468122	 0.481857	 0.679819
H	 -3.265538	 -0.004312	 1.614840
O	 -1.189946	 -0.765863	 0.237511
H	 -0.744570	 1.234948	 0.425942
C	 0.026572	 -0.995256	 -0.379403
C	 1.057223	 0.049888	 -0.004615
H	 -0.054361	 -1.010670	 -1.459674
H	 0.397526	 -1.952058	 -0.044198
F	 2.203233	 -0.234060	 -0.590375
F	 0.698147	 1.254887	 -0.392621
F	 1.266440	 0.094219	 1.288722

3 5 7 9 F
