%nprocshared=4
%mem=2GB
#HF/cc-pVTZ nosymm scf=tight opt=ModRedundant

Mol

0 1
H	 -2.571453	 0.205215	 0.730439
C	 -1.583567	 -0.235632	 0.756984
C	 -0.600949	 0.658697	 -0.000002
H	 -1.634659	 -1.219038	 0.309339
H	 -1.285890	 -0.348283	 1.790805
C	 0.763408	 0.112229	 -0.000006
H	 -0.906875	 0.779603	 -1.030887
H	 -0.560070	 1.645455	 0.442234
N	 1.806008	 -0.317179	 0.000007

7 3 6 9 F
