%nprocshared=4
%mem=2GB
#HF/cc-pVTZ nosymm scf=tight opt=ModRedundant

Mol

0 1
O	 0.623971	 1.347241	 -0.000777
C	 0.485107	 0.171416	 -0.000134
C	 1.606966	 -0.836201	 0.000174
O	 -0.695554	 -0.422406	 0.000602
C	 2.988788	 -0.202529	 -0.000115
H	 1.465110	 -1.474645	 -0.864821
H	 1.465209	 -1.474077	 0.865596
H	 3.131767	 0.419673	 -0.873407
H	 3.750876	 -0.972315	 0.000098
H	 3.131883	 0.420264	 0.872742
C	 -1.570406	 -0.159707	 -1.087475
C	 -2.839577	 -0.947052	 -0.859924
H	 -1.084296	 -0.448050	 -2.008834
H	 -1.765381	 0.902376	 -1.135309
H	 -2.631853	 -2.008657	 -0.812827
H	 -3.531337	 -0.768915	 -1.674766
H	 -3.316862	 -0.650514	 0.065622

11 4 2 3 F
