%nprocshared=4
%mem=2GB
#HF/cc-pVTZ nosymm scf=tight opt=ModRedundant

Mol

0 1
H	 -3.436473	 1.252944	 -1.023892
O	 -3.458596	 0.315260	 -0.960865
C	 -3.176635	 -0.080824	 0.355601
C	 -1.763371	 0.265266	 0.799691
H	 -3.321825	 -1.153438	 0.379502
H	 -3.895468	 0.357385	 1.043382
C	 -0.673390	 -0.426948	 -0.013392
H	 -1.631049	 1.344913	 0.747560
H	 -1.664587	 -0.001624	 1.849167
C	 -0.356341	 0.287463	 -1.324524
H	 -0.974897	 -1.448092	 -0.218994
H	 0.229618	 -0.491635	 0.589017
C	 0.738832	 -0.407616	 -2.131066
H	 -1.264313	 0.357725	 -1.915743
H	 -0.049683	 1.309900	 -1.113716
C	 1.149043	 0.314544	 -3.415613
H	 0.417555	 -1.417457	 -2.375711
H	 1.617814	 -0.514989	 -1.501398
C	 0.064900	 0.373044	 -4.489092
H	 2.019045	 -0.187191	 -3.828085
H	 1.469739	 1.324210	 -3.172407
H	 -0.279865	 -0.622903	 -4.748520
H	 0.443721	 0.836092	 -5.393151
H	 -0.795380	 0.946957	 -4.166373

11 7 4 3 F
