%nprocshared=1
%mem=2GB
#HF/6-31G* nosymm scf=tight opt=ModRedundant

Mol

0 1
O	 3.225979	 0.970355	 -0.599647
C	 2.701189	 0.057885	 -0.047330
C	 1.245376	 -0.013843	 0.345420
O	 3.347903	 -1.046386	 0.304773
C	 0.455112	 1.231400	 -0.050772
H	 0.838542	 -0.913825	 -0.103701
H	 1.208210	 -0.175333	 1.419774
C	 -0.998893	 1.219485	 0.433193
H	 0.482531	 1.345121	 -1.130325
H	 0.957290	 2.103070	 0.354729
C	 -1.723953	 -0.118896	 0.265457
H	 -1.543950	 1.981423	 -0.119155
H	 -1.035419	 1.521358	 1.478921
C	 -3.200613	 -0.049104	 0.659924
H	 -1.643735	 -0.441656	 -0.771467
H	 -1.236925	 -0.886314	 0.862822
C	 -3.934013	 -1.382185	 0.501334
H	 -3.698709	 0.708070	 0.056747
H	 -3.281894	 0.283922	 1.693455
C	 -5.408967	 -1.302989	 0.893686
H	 -3.852926	 -1.716923	 -0.530663
H	 -3.440200	 -2.139289	 1.106911
H	 -5.901263	 -2.262725	 0.770564
H	 -5.939036	 -0.578577	 0.281763
H	 -5.523029	 -1.003598	 1.931775
C	 4.728119	 -1.109107	 -0.004993
H	 4.882018	 -1.033965	 -1.071845
H	 5.068212	 -2.067527	 0.355250
H	 5.265056	 -0.311663	 0.488280

11 8 5 9 F
