%nprocshared=4
%mem=2GB
#HF/cc-pVTZ nosymm scf=tight opt=ModRedundant

Mol

0 1
H	 -0.843094	 1.481681	 4.539307
O	 0.041054	 1.451287	 4.854247
C	 0.522346	 0.133444	 4.823905
C	 0.812160	 -0.374179	 3.419265
H	 1.436389	 0.139417	 5.402239
H	 -0.172735	 -0.536060	 5.326974
C	 -0.424390	 -0.508910	 2.533465
H	 1.526712	 0.295759	 2.950484
H	 1.298441	 -1.342732	 3.507771
C	 -0.098968	 -1.052007	 1.142788
H	 -0.905646	 0.458891	 2.439887
H	 -1.142407	 -1.170239	 3.015525
C	 -1.311023	 -1.277304	 0.237018
H	 0.596762	 -0.377261	 0.649935
H	 0.425585	 -1.996792	 1.255449
C	 -2.041121	 -0.006551	 -0.194127
H	 -0.977972	 -1.803191	 -0.653514
H	 -2.012026	 -1.943261	 0.735267
C	 -3.489218	 0.042606	 0.286507
H	 -2.022185	 0.066287	 -1.279394
H	 -1.518764	 0.869305	 0.178730
C	 -4.219984	 1.311773	 -0.139038
H	 -4.022855	 -0.824300	 -0.093339
H	 -3.510372	 -0.038577	 1.370031
H	 -4.244251	 1.405725	 -1.219696
H	 -5.244345	 1.313233	 0.215630
H	 -3.732090	 2.196311	 0.257073

10 13 16 20 F
