%nprocshared=4
%mem=2GB
#HF/cc-pVTZ nosymm scf=tight opt=ModRedundant

Mol

0 1
H	 -3.144994	 -1.202467	 -0.018751
O	 -2.321472	 -0.864941	 -0.318626
C	 -2.021813	 0.336996	 0.342658
C	 -0.669613	 0.837286	 -0.127252
H	 -2.780861	 1.084746	 0.127159
H	 -2.006390	 0.184138	 1.420053
C	 0.490865	 -0.082543	 0.241244
H	 -0.708709	 0.967192	 -1.204587
H	 -0.507562	 1.822272	 0.303070
C	 0.374848	 -1.469937	 -0.383484
H	 0.544582	 -0.173702	 1.320068
H	 1.425126	 0.376020	 -0.076559
C	 1.538198	 -2.387396	 -0.022001
H	 -0.557043	 -1.928985	 -0.064805
H	 0.313373	 -1.376214	 -1.464745
H	 1.604347	 -2.529197	 1.051514
H	 1.425726	 -3.364229	 -0.478566
H	 2.482950	 -1.972468	 -0.357744

10 7 4 8 F
