%nprocshared=4
%mem=2GB
#HF/cc-pVTZ nosymm scf=tight opt=ModRedundant

Mol

0 1
H	 -0.080779	 -0.551192	 0.817326
N	 -0.625934	 -0.663929	 -0.000707
C	 -1.978635	 -0.158664	 0.001017
C	 -0.060074	 -1.282429	 -1.060821
H	 -2.519057	 -0.493535	 -0.876362
H	 -1.938890	 0.917202	 -0.004137
H	 -2.514266	 -0.485137	 0.884506
C	 1.369490	 -1.726539	 -0.841884
O	 -0.630556	 -1.464225	 -2.095508
H	 1.425498	 -2.428224	 -0.017810
H	 1.730531	 -2.198787	 -1.740605
H	 1.998079	 -0.876606	 -0.602910

4 2 3 5 F
