%nprocshared=4
%mem=2GB
#HF/cc-pVTZ nosymm scf=tight opt=ModRedundant

Mol

0 1
H	 2.614283	 2.028610	 0.296620
O	 3.358864	 1.662087	 -0.142800
C	 3.565468	 0.338079	 0.273842
C	 2.533667	 -0.637565	 -0.272227
H	 4.548038	 0.064914	 -0.086598
H	 3.593945	 0.282242	 1.360360
C	 1.114816	 -0.402372	 0.240993
H	 2.544552	 -0.580764	 -1.356576
H	 2.850574	 -1.642962	 -0.005497
C	 0.113298	 -1.420414	 -0.302504
H	 0.796373	 0.598427	 -0.031033
H	 1.113377	 -0.446476	 1.328807
C	 -1.021236	 -1.786220	 0.656285
H	 -0.309008	 -1.044767	 -1.231360
H	 0.650521	 -2.328758	 -0.560908
C	 -2.004664	 -0.656118	 0.955418
H	 -1.572457	 -2.619778	 0.229831
H	 -0.598216	 -2.151186	 1.589564
C	 -3.171448	 -1.096993	 1.835562
H	 -2.392728	 -0.262132	 0.018588
H	 -1.490837	 0.167331	 1.442158
C	 -4.153256	 0.029822	 2.139265
H	 -3.699313	 -1.912766	 1.349300
H	 -2.785072	 -1.498707	 2.768515
H	 -4.582036	 0.431716	 1.227198
H	 -4.969274	 -0.317215	 2.762793
H	 -3.663775	 0.846220	 2.660084

14 10 7 4 F
