%nprocshared=4
%mem=2GB
#HF/cc-pVTZ nosymm scf=tight opt=ModRedundant

Mol

0 1
H	 2.614283	 2.028610	 0.296620
O	 3.358864	 1.662087	 -0.142800
C	 3.565468	 0.338079	 0.273842
C	 2.284696	 -0.378227	 0.675361
H	 4.015274	 -0.169884	 -0.568552
H	 4.283713	 0.305063	 1.090839
C	 1.604281	 0.200446	 1.913918
H	 1.597222	 -0.353570	 -0.164835
H	 2.528030	 -1.422918	 0.853704
C	 0.340684	 -0.564157	 2.305761
H	 1.355610	 1.240902	 1.733314
H	 2.303102	 0.185963	 2.748619
C	 -0.341820	 -0.072923	 3.583701
H	 -0.368919	 -0.526455	 1.482797
H	 0.597563	 -1.611918	 2.434907
C	 -0.954991	 1.323368	 3.493511
H	 -1.126161	 -0.778324	 3.843981
H	 0.371676	 -0.099981	 4.404279
C	 -1.708850	 1.727503	 4.757940
H	 -1.634453	 1.361661	 2.644787
H	 -0.181176	 2.059348	 3.297177
C	 -2.319137	 3.122558	 4.672697
H	 -2.494106	 1.002714	 4.954486
H	 -1.033536	 1.681590	 5.608179
H	 -3.024188	 3.191735	 3.850897
H	 -2.848338	 3.376467	 5.584061
H	 -1.554348	 3.875754	 4.514125

4 3 2 1 F
