%nprocshared=4
%mem=2GB
#HF/cc-pVTZ nosymm scf=tight opt=ModRedundant

Mol

0 1
H	 2.342730	 0.877684	 -1.045694
C	 2.360424	 0.000000	 -0.411793
C	 1.173749	 0.000000	 0.526870
H	 3.286567	 0.000000	 0.151574
H	 2.342730	 -0.877684	 -1.045694
O	 0.000000	 0.000000	 -0.223739
H	 1.203779	 0.876757	 1.172538
H	 1.203779	 -0.876757	 1.172538
C	 -1.173749	 0.000000	 0.526870
C	 -1.866641	 1.334712	 0.360349
H	 -0.945161	 -0.177703	 1.576946
H	 -1.826851	 -0.807428	 0.198222
H	 -1.226537	 2.139424	 0.699728
H	 -2.784378	 1.357434	 0.936861
H	 -2.109160	 1.509033	 -0.680454

11 9 6 3 F
