%nprocshared=1
%mem=2GB
#HF/6-31G* nosymm scf=tight opt=ModRedundant

Mol

0 1
O	 -2.821601	 1.309235	 -0.001213
C	 -2.668563	 0.129746	 -0.000350
C	 -3.801572	 -0.864014	 -0.000442
O	 -1.481751	 -0.454642	 0.000584
H	 -4.417280	 -0.689587	 -0.874708
H	 -3.443784	 -1.883046	 -0.000565
H	 -4.417179	 -0.689832	 0.873954
C	 -0.334255	 0.388708	 0.000906
C	 0.891947	 -0.504646	 0.000751
H	 -0.365390	 1.025305	 -0.873475
H	 -0.365484	 1.024911	 0.875569
C	 2.191998	 0.301789	 0.000897
H	 0.855148	 -1.151283	 -0.871571
H	 0.855132	 -1.151660	 0.872805
C	 2.786289	 0.473981	 1.400002
H	 2.923223	 -0.186756	 -0.640756
H	 2.011409	 1.283118	 -0.434375
C	 4.085488	 1.278312	 1.399929
H	 2.967709	 -0.505715	 1.836302
H	 2.057748	 0.964118	 2.041925
H	 4.845844	 0.795273	 0.792849
H	 4.482164	 1.383087	 2.404870
H	 3.928988	 2.276236	 1.000349

16 12 9 13 F
