%nprocshared=4
%mem=2GB
#HF/cc-pVTZ nosymm scf=tight opt=ModRedundant

Mol

0 1
H	 -2.644180	 -0.653737	 1.272255
C	 -2.092774	 -0.380414	 0.391915
O	 -0.808934	 -0.154049	 0.752536
F	 -2.163230	 -1.351640	 -0.507133
F	 -2.627232	 0.691260	 -0.169301
C	 0.085006	 0.250800	 -0.215074
C	 0.303524	 -0.929741	 -1.158392
Cl	 1.627599	 0.748661	 0.504705
H	 -0.281011	 1.079588	 -0.795408
F	 1.136366	 -0.604404	 -2.114192
F	 -0.841517	 -1.251450	 -1.712196
F	 0.767377	 -1.979638	 -0.538062

9 6 3 2 F
