%nprocshared=4
%mem=2GB
#HF/cc-pVTZ nosymm scf=tight 
prop=(read,field)

Mol

0 1
H	 3.722191	 -0.933094	 -0.066052
O	 2.824555	 -1.154317	 0.131448
C	 2.076742	 -0.067388	 -0.038238
C	 0.626302	 -0.337600	 0.258228
O	 2.538572	 0.965401	 -0.381606
C	 -0.267042	 0.883117	 0.076477
H	 0.325904	 -1.161501	 -0.378016
H	 0.574821	 -0.713703	 1.275248
C	 -1.726538	 0.642604	 0.463826
H	 -0.210519	 1.217573	 -0.953510
H	 0.130204	 1.693092	 0.675666
C	 -2.480607	 -0.340624	 -0.429865
H	 -2.242814	 1.597631	 0.438596
H	 -1.776258	 0.301190	 1.495529
C	 -3.955649	 -0.460146	 -0.060485
H	 -2.393471	 -0.020503	 -1.464739
H	 -2.023960	 -1.323655	 -0.374373
H	 -4.467389	 -1.160962	 -0.709840
H	 -4.458633	 0.497269	 -0.144518
H	 -4.076174	 -0.806918	 0.960484

@grid.dat /N
