%nprocshared=1
%mem=2GB
#HF/6-31G* nosymm scf=tight 

Mol

0 1
O	 -2.439739	 -0.935931	 -0.423848
C	 -1.921153	 0.064240	 -0.045697
C	 -2.624470	 1.379923	 0.150949
O	 -0.632575	 0.154573	 0.251549
H	 -2.168117	 2.136577	 -0.476876
H	 -3.669540	 1.273223	 -0.098610
H	 -2.519365	 1.700893	 1.180846
C	 0.160891	 -1.019931	 0.106212
C	 1.589627	 -0.672828	 0.480843
H	 0.089836	 -1.367806	 -0.916050
H	 -0.238459	 -1.792301	 0.749618
C	 1.836550	 0.825461	 0.666741
H	 2.235882	 -1.054380	 -0.307006
H	 1.854276	 -1.207730	 1.389193
C	 3.290153	 1.140971	 1.016729
H	 1.562439	 1.349832	 -0.246494
H	 1.184367	 1.202521	 1.447665
H	 3.439204	 2.208474	 1.144217
H	 3.965648	 0.803720	 0.235547
H	 3.585269	 0.653383	 1.941523

16 12 9 8 F
2 4 8 10 F
1 2 4 8 F
