%nprocshared=4
%mem=2GB
#HF/cc-pVTZ nosymm scf=tight opt=ModRedundant

Mol

0 1
H	 -1.835082	 1.385983	 0.000069
C	 -1.300516	 0.441153	 -0.000028
O	 -0.006604	 0.654344	 -0.000106
O	 -1.828920	 -0.612308	 0.000113
C	 0.852093	 -0.482521	 -0.000161
C	 0.267654	 -1.501755	 -0.948999
H	 0.920930	 -0.868240	 1.007033
H	 1.841214	 -0.173099	 -0.306529
H	 -0.723820	 -1.799373	 -0.632182
H	 0.899142	 -2.381831	 -0.972330
H	 0.201064	 -1.100728	 -1.952349

7 5 3 2 F
