%nprocshared=1
%mem=2GB
#HF/6-31G* nosymm scf=tight opt=ModRedundant

Mol

0 1
O	 0.625848	 1.349995	 -0.000749
C	 0.486307	 0.169203	 0.000779
C	 1.608116	 -0.841643	 0.000302
O	 -0.698257	 -0.426125	 0.001050
C	 2.990107	 -0.200498	 -0.000684
H	 1.468623	 -1.481519	 -0.865924
H	 1.469683	 -1.481289	 0.866878
H	 3.129736	 0.423364	 -0.875135
H	 3.757882	 -0.966877	 -0.001197
H	 3.130964	 0.423383	 0.873533
C	 -1.286424	 -0.721354	 -1.261605
C	 -2.617424	 -1.392499	 -0.996434
H	 -0.619050	 -1.363700	 -1.819805
H	 -1.406104	 0.197988	 -1.818452
H	 -2.480901	 -2.308691	 -0.433308
H	 -3.102112	 -1.636017	 -1.936341
H	 -3.272374	 -0.738507	 -0.431995

11 4 2 3 F
