%nprocshared=4
%mem=2GB
#HF/cc-pVTZ nosymm scf=tight opt=ModRedundant

Mol

0 1
H	 -0.694138	 -1.497124	 0.975101
C	 -0.264926	 -0.516272	 1.145003
N	 0.526300	 -0.128137	 0.000000
H	 0.366049	 -0.581507	 2.022302
H	 -1.085328	 0.170320	 1.364328
C	 -0.247113	 0.037112	 -1.209233
H	 1.026633	 0.710301	 0.200868
H	 -0.996493	 -0.743733	 -1.271440
H	 0.397975	 -0.057351	 -2.073512
H	 -0.763794	 0.997171	 -1.271673

2 3 6 8 F
