%nprocshared=4
%mem=2GB
#HF/cc-pVTZ nosymm scf=tight opt=ModRedundant

Mol

0 1
O	 -4.741559	 3.677983	 3.374923
C	 -3.562142	 3.759984	 3.486103
C	 -2.630085	 2.634875	 3.084568
C	 -2.907686	 5.004973	 4.041002
C	 -2.930863	 2.021940	 1.724174
H	 -1.614819	 3.023858	 3.116108
H	 -2.673335	 1.879345	 3.865793
C	 -3.110998	 0.507887	 1.789786
H	 -2.128490	 2.268151	 1.038104
H	 -3.823872	 2.481925	 1.316640
C	 -3.412880	 -0.119289	 0.431903
H	 -2.212556	 0.053551	 2.201679
H	 -3.915915	 0.268322	 2.481146
C	 -2.384054	 0.228841	 -0.640039
H	 -4.397761	 0.200520	 0.100476
H	 -3.465921	 -1.199851	 0.540074
C	 -2.509162	 1.661295	 -1.148186
H	 -1.384690	 0.074434	 -0.242084
H	 -2.488410	 -0.459202	 -1.474680
H	 -2.374985	 2.375325	 -0.342457
H	 -1.765265	 1.875681	 -1.906919
H	 -3.486742	 1.837670	 -1.584388
H	 -2.221465	 5.423139	 3.312795
H	 -3.662109	 5.735040	 4.290482
H	 -2.329392	 4.760820	 4.925313

9 5 3 6 F
