%nprocshared=4
%mem=2GB
#HF/cc-pVTZ nosymm scf=tight opt=ModRedundant

Mol

0 1
H	 2.324354	 -2.081213	 0.061337
N	 1.343288	 -1.906805	 0.062321
C	 0.937198	 -1.258733	 -1.168507
C	 0.962598	 -1.129354	 1.224426
H	 1.216080	 -1.884929	 -2.007229
H	 1.415174	 -0.286445	 -1.301972
C	 -0.567949	 -1.062370	 -1.161575
H	 1.259885	 -1.661799	 2.119677
H	 1.442178	 -0.148891	 1.242147
C	 -0.542583	 -0.933161	 1.228222
H	 -1.054341	 -2.041868	 -1.186021
H	 -0.866580	 -0.525319	 -2.054051
N	 -0.976577	 -0.298712	 -0.000000
H	 -0.822872	 -0.302683	 2.063719
H	 -1.027228	 -1.903757	 1.368412
C	 -2.391156	 -0.021003	 -0.000000
H	 -2.853954	 -0.458728	 -0.875714
H	 -2.853954	 -0.458728	 0.875714
H	 -2.614037	 1.049773	 -0.000000

7 13 16 19 F
