%nprocshared=4
%mem=2GB
#HF/cc-pVTZ nosymm scf=tight opt=ModRedundant

Mol

0 1
H	 3.808185	 4.737920	 1.657259
C	 3.299186	 3.853265	 1.324871
C	 1.973259	 3.924651	 0.936976
C	 3.970662	 2.645967	 1.285705
H	 1.452707	 4.862087	 0.967640
C	 1.319868	 2.787441	 0.509976
H	 4.998916	 2.591663	 1.586730
C	 3.317787	 1.506384	 0.858385
H	 0.293546	 2.824728	 0.206114
C	 1.989504	 1.574264	 0.469069
H	 3.834902	 0.569833	 0.826857
C	 1.238974	 0.374429	 0.000004
O	 1.968286	 -0.725612	 -0.000027
O	 0.103528	 0.398063	 -0.339676
C	 3.373556	 -0.568203	 0.000011
H	 3.695416	 -0.031588	 -0.879663
H	 3.782700	 -1.565294	 -0.000152
H	 3.695405	 -0.031851	 0.879862

10 12 13 15 F
