%nprocshared=4
%mem=2GB
#HF/cc-pVTZ nosymm scf=tight opt=ModRedundant

Mol

0 1
O	 1.397953	 2.074540	 0.294002
C	 0.400458	 2.381062	 0.852648
C	 -0.889911	 1.602526	 0.830964
O	 0.288758	 3.475821	 1.587116
C	 -0.824290	 0.329213	 -0.000115
H	 -1.151318	 1.386154	 1.861643
H	 -1.661997	 2.271416	 0.465028
C	 -2.146151	 -0.432825	 -0.000068
H	 -0.032977	 -0.306061	 0.381361
H	 -0.543990	 0.580215	 -1.016835
C	 -3.366283	 0.483552	 0.000557
H	 -2.189286	 -1.084450	 -0.869996
H	 -2.188867	 -1.085083	 0.869399
C	 -4.687436	 -0.278003	 0.000108
H	 -3.325150	 1.134819	 -0.867957
H	 -3.325087	 1.133730	 0.869885
H	 -4.773783	 -0.912098	 -0.876078
H	 -5.531922	 0.401392	 0.000363
H	 -4.773901	 -0.912898	 0.875703
C	 1.428923	 4.303865	 1.695244
H	 2.250572	 3.764812	 2.143050
H	 1.138538	 5.129488	 2.324426
H	 1.731949	 4.664291	 0.723400

9 5 8 12 F
