%nprocshared=1
%mem=2GB
#HF/6-31G* nosymm scf=tight opt=ModRedundant

Mol

0 1
O	 0.050696	 0.712161	 -0.963162
C	 0.486307	 0.169203	 0.000779
C	 1.608116	 -0.841643	 0.000302
O	 0.032299	 0.384047	 1.227696
C	 2.990107	 -0.200498	 -0.000684
H	 1.468623	 -1.481519	 -0.865924
H	 1.469683	 -1.481289	 0.866878
H	 3.129736	 0.423364	 -0.875135
H	 3.757882	 -0.966877	 -0.001197
H	 3.130964	 0.423383	 0.873533
C	 -1.031949	 1.317422	 1.381278
C	 -1.367745	 1.384168	 2.856099
H	 -1.877614	 0.987682	 0.793309
H	 -0.715909	 2.278554	 0.999262
H	 -1.677127	 0.412749	 3.224591
H	 -2.178077	 2.087351	 3.019019
H	 -0.509133	 1.710740	 3.431767

4 2 3 6 F
