%nprocshared=1
%mem=2GB
#HF/6-31G* nosymm scf=tight 

Mol

0 1
O	 1.748594	 1.466599	 0.395453
C	 1.411186	 0.625764	 1.165044
C	 0.093500	 -0.109740	 1.140514
O	 2.173687	 0.212485	 2.169498
C	 -0.823008	 0.326187	 0.001381
H	 0.315561	 -1.171846	 1.082768
H	 -0.380349	 0.040761	 2.106711
C	 -2.149452	 -0.435131	 -0.000098
H	 -0.312064	 0.179038	 -0.944913
H	 -1.009637	 1.392581	 0.080651
C	 -3.368779	 0.488503	 -0.000883
H	 -2.193746	 -1.087250	 -0.871175
H	 -2.195311	 -1.087803	 0.870418
C	 -4.693822	 -0.272754	 -0.001129
H	 -3.325798	 1.139422	 -0.871284
H	 -3.326423	 1.139959	 0.869145
H	 -4.781274	 -0.907928	 -0.878124
H	 -5.538651	 0.408946	 -0.001420
H	 -4.781694	 -0.907783	 0.875984
C	 3.443853	 0.823299	 2.305669
H	 4.043477	 0.654168	 1.422848
H	 3.903661	 0.359802	 3.164519
H	 3.339019	 1.886796	 2.465325

15 11 8 12 F
1 2 3 6 F
9 5 3 6 F
1 2 4 20 F
