%nprocshared=4
%mem=2GB
#HF/cc-pVTZ nosymm scf=tight opt=ModRedundant

Mol

0 1
H	 -2.918419	 -1.878045	 -0.641453
C	 -2.579040	 -1.136353	 0.052105
C	 -2.105997	 -0.000418	 -0.398703
H	 -2.637589	 -1.344012	 1.102461
O	 -1.857689	 0.207286	 -1.712105
H	 -1.900660	 0.832667	 0.248548
C	 -0.679850	 -0.279327	 -2.249714
C	 -0.843806	 -1.683548	 -2.794062
H	 0.128468	 -0.294093	 -1.528481
H	 -0.399105	 0.358048	 -3.074562
F	 0.294611	 -2.084753	 -3.323326
F	 -1.169748	 -2.540975	 -1.850618
F	 -1.764778	 -1.746965	 -3.724786

6 3 5 7 F
