%nprocshared=4
%mem=2GB
#HF/cc-pVTZ nosymm scf=tight opt=ModRedundant

Mol

0 1
H	 3.721907	 -0.933076	 -0.066039
O	 2.824271	 -1.154299	 0.131461
C	 2.076458	 -0.067370	 -0.038225
C	 0.626018	 -0.337582	 0.258241
O	 2.538288	 0.965419	 -0.381593
C	 -0.267326	 0.883135	 0.076490
H	 0.325620	 -1.161483	 -0.378003
H	 0.574537	 -0.713685	 1.275261
C	 -1.726822	 0.642622	 0.463839
H	 -0.210803	 1.217591	 -0.953497
H	 0.129920	 1.693110	 0.675679
C	 -1.972341	 -0.591175	 1.330733
H	 -2.305100	 0.542946	 -0.449896
H	 -2.116698	 1.522013	 0.971889
C	 -3.453697	 -0.838562	 1.596928
H	 -1.544335	 -1.461754	 0.840899
H	 -1.456930	 -0.490474	 2.280557
H	 -3.600400	 -1.719329	 2.211266
H	 -3.998118	 -0.986515	 0.670422
H	 -3.904123	 0.003001	 2.112723

12 9 6 10 F
