%nprocshared=4
%mem=2GB
#HF/cc-pVTZ nosymm scf=tight opt=ModRedundant

Mol

0 1
H	 -3.436473	 1.252944	 -1.023892
O	 -3.458596	 0.315260	 -0.960865
C	 -3.176635	 -0.080824	 0.355601
C	 -1.763371	 0.265266	 0.799691
H	 -3.321825	 -1.153438	 0.379502
H	 -3.895468	 0.357385	 1.043382
C	 -0.673390	 -0.426948	 -0.013392
H	 -1.631049	 1.344913	 0.747560
H	 -1.664587	 -0.001624	 1.849167
C	 0.737842	 -0.043159	 0.423759
H	 -0.806103	 -0.190518	 -1.063345
H	 -0.797221	 -1.503753	 0.074146
C	 0.789280	 1.293013	 1.162032
H	 1.137508	 -0.831122	 1.054847
H	 1.385388	 0.006479	 -0.449211
C	 0.451674	 2.514927	 0.305998
H	 1.777076	 1.423809	 1.597922
H	 0.094119	 1.255058	 1.996257
C	 1.458890	 2.816771	 -0.801047
H	 0.381811	 3.380925	 0.957107
H	 -0.535153	 2.385034	 -0.130717
H	 2.456925	 2.945775	 -0.394403
H	 1.195180	 3.730132	 -1.322075
H	 1.502160	 2.023709	 -1.537788

13 10 7 11 F
