%nprocshared=4
%mem=2GB
#HF/cc-pVTZ nosymm scf=tight opt=ModRedundant

Mol

0 1
H	 -3.642953	 0.223825	 0.000000
C	 -2.571844	 0.155001	 0.000000
C	 -1.957580	 -1.086132	 0.000000
C	 -1.807160	 1.303787	 0.000000
H	 -2.551493	 -1.979629	 0.000000
C	 -0.582719	 -1.174294	 0.000000
H	 -2.279934	 2.266806	 0.000000
C	 -0.427220	 1.213406	 0.000000
H	 -0.094904	 -2.127556	 0.000000
C	 0.196908	 -0.024061	 0.000000
H	 0.151409	 2.115254	 0.000000
C	 1.690041	 -0.173233	 0.000000
C	 2.297411	 -1.481515	 -0.451841
O	 2.386848	 0.725064	 0.350546
H	 1.955095	 -2.299005	 0.171465
H	 3.370712	 -1.402685	 -0.384457
H	 2.014634	 -1.703048	 -1.474064

13 12 10 8 F
