%nprocshared=4
%mem=2GB
#HF/cc-pVTZ nosymm scf=tight opt=ModRedundant

Mol

0 1
H	 -0.185851	 -0.826727	 -0.871859
N	 -0.625934	 -0.663929	 -0.000707
C	 -1.978635	 -0.158664	 0.001017
C	 0.074470	 -0.929684	 1.124189
H	 -2.519057	 -0.493535	 -0.876362
H	 -1.938890	 0.917202	 -0.004137
H	 -2.514266	 -0.485137	 0.884506
C	 1.472800	 -1.455853	 0.886202
O	 -0.366448	 -0.771891	 2.224083
H	 2.058767	 -0.734015	 0.329253
H	 1.942944	 -1.642322	 1.837654
H	 1.439441	 -2.375324	 0.313420

4 2 3 5 F
