%nprocshared=4
%mem=2GB
#HF/cc-pVTZ nosymm scf=tight opt=ModRedundant

Mol

0 1
H	 -3.436473	 1.252944	 -1.023892
O	 -3.458596	 0.315260	 -0.960865
C	 -3.176635	 -0.080824	 0.355601
C	 -1.763371	 0.265266	 0.799691
H	 -3.321825	 -1.153438	 0.379502
H	 -3.895468	 0.357385	 1.043382
C	 -0.673390	 -0.426948	 -0.013392
H	 -1.631049	 1.344913	 0.747560
H	 -1.664587	 -0.001624	 1.849167
C	 0.340927	 -1.170617	 0.851529
H	 -0.161279	 0.308588	 -0.623835
H	 -1.138243	 -1.125825	 -0.704759
C	 1.426195	 -1.865359	 0.031422
H	 0.792980	 -0.469053	 1.546040
H	 -0.176057	 -1.910774	 1.458778
C	 2.421002	 -2.691421	 0.848629
H	 1.969367	 -1.121715	 -0.547204
H	 0.948167	 -2.520170	 -0.691994
C	 3.313785	 -1.876011	 1.780932
H	 3.052189	 -3.246196	 0.161168
H	 1.879188	 -3.434609	 1.427877
H	 3.864088	 -1.119992	 1.229862
H	 4.036981	 -2.514103	 2.275976
H	 2.743128	 -1.372924	 2.552203

11 7 4 3 F
