%nprocshared=4
%mem=2GB
#HF/cc-pVTZ nosymm scf=tight opt=ModRedundant

Mol

0 1
O	 2.868453	 1.353349	 -0.000734
C	 2.841259	 0.166180	 -0.000295
C	 1.542794	 -0.614730	 -0.000853
C	 4.113372	 -0.651103	 0.000743
C	 0.288398	 0.247429	 0.000314
H	 1.557171	 -1.273139	 -0.866508
H	 1.557484	 -1.274998	 0.863344
C	 -0.993089	 -0.581367	 -0.000217
H	 0.305153	 0.900562	 -0.864701
H	 0.305567	 0.898805	 0.866656
C	 -2.258482	 0.271340	 0.000669
H	 -1.002280	 -1.233920	 -0.870484
H	 -1.002061	 -1.235367	 0.868958
C	 -3.308516	 -0.199125	 -1.001742
H	 -1.994905	 1.303934	 -0.214711
H	 -2.690231	 0.270887	 0.998527
C	 -4.569972	 0.657889	 -0.995051
H	 -2.878192	 -0.197861	 -1.999619
H	 -3.573525	 -1.230788	 -0.786427
H	 -4.343100	 1.689886	 -1.241126
H	 -5.293899	 0.297577	 -1.716942
H	 -5.043705	 0.649120	 -0.019068
H	 4.145311	 -1.294584	 -0.871587
H	 4.970080	 0.004978	 -0.000091
H	 4.145223	 -1.291980	 0.874988

15 11 8 12 F
