%nprocshared=4
%mem=2GB
#HF/cc-pVTZ nosymm scf=tight opt=ModRedundant

Mol

0 1
H	 2.342730	 0.877684	 -1.045694
C	 2.360424	 0.000000	 -0.411793
C	 1.173749	 0.000000	 0.526870
H	 3.286567	 0.000000	 0.151574
H	 2.342730	 -0.877684	 -1.045694
O	 -0.000000	 0.000000	 -0.223739
H	 1.203779	 0.876757	 1.172538
H	 1.203779	 -0.876757	 1.172538
C	 -1.173749	 0.000000	 0.526870
C	 -1.105552	 1.112134	 1.550487
H	 -1.299551	 -0.961635	 1.022776
H	 -2.034210	 0.140786	 -0.126031
H	 -0.259905	 0.968225	 2.211279
H	 -2.010332	 1.131067	 2.147260
H	 -0.995341	 2.071812	 1.061257

11 9 6 3 F
