%nprocshared=4
%mem=2GB
#HF/cc-pVTZ nosymm scf=tight opt=ModRedundant

Mol

0 1
H	 -4.024094	 -0.454727	 0.000004
C	 -2.962215	 -0.297920	 0.000004
C	 -2.454736	 0.988978	 0.000025
C	 -2.105837	 -1.382632	 -0.000016
H	 -3.120052	 1.830438	 0.000041
C	 -1.090106	 1.189676	 0.000026
H	 -2.500390	 -2.380229	 -0.000033
C	 -0.739175	 -1.183302	 -0.000016
H	 -0.680214	 2.179144	 0.000042
C	 -0.227341	 0.104540	 0.000006
H	 -0.073209	 -2.021168	 -0.000032
C	 1.238974	 0.374429	 0.000004
O	 1.786712	 0.260897	 1.195445
O	 1.856540	 0.662003	 -0.970096
C	 3.177080	 0.499267	 1.293509
H	 3.725988	 -0.197674	 0.678408
H	 3.428488	 0.359168	 2.332141
H	 3.412268	 1.506442	 0.984183

13 12 10 6 F
