%nprocshared=4
%mem=2GB
#HF/6-31G* nosymm scf=tight opt=ModRedundant

Mol

0 1
H	 -2.798360	 -0.862255	 -0.071053
N	 -1.863561	 -0.715187	 0.256814
C	 -1.344686	 0.554728	 -0.219830
H	 -1.300452	 -1.461917	 -0.101532
C	 0.081427	 0.741154	 0.254071
H	 -1.362155	 0.656231	 -1.305829
H	 -1.952773	 1.354456	 0.191809
O	 0.874168	 -0.245412	 -0.342030
H	 0.444037	 1.730782	 -0.023037
H	 0.121165	 0.653424	 1.337565
C	 1.904290	 0.248537	 -1.137286
H	 2.441983	 -0.598517	 -1.541123
H	 1.519127	 0.845701	 -1.961923
H	 2.593428	 0.861323	 -0.559886

11 8 5 3 F
