%nprocshared=4
%mem=2GB
#HF/cc-pVTZ nosymm scf=tight opt=ModRedundant

Mol

0 1
O	 -0.427360	 -1.392182	 -0.665010
C	 0.595354	 -1.297218	 -0.076775
C	 1.246364	 -0.005813	 0.348416
O	 1.317782	 -2.342573	 0.292610
C	 0.453207	 1.232821	 -0.049003
H	 1.394842	 -0.066917	 1.419758
H	 2.239873	 0.009843	 -0.088647
C	 -0.998367	 1.217982	 0.432195
H	 0.481498	 1.345443	 -1.127236
H	 0.951413	 2.105557	 0.354893
C	 -1.216409	 0.602129	 1.813350
H	 -1.586319	 0.661431	 -0.291496
H	 -1.392514	 2.231814	 0.423743
C	 -0.247115	 1.136246	 2.864528
H	 -2.236900	 0.798747	 2.133990
H	 -1.115780	 -0.478019	 1.761489
C	 1.197770	 0.702022	 2.635336
H	 -0.567927	 0.805560	 3.849447
H	 -0.295788	 2.222658	 2.878870
C	 2.159660	 1.238007	 3.690450
H	 1.248033	 -0.383329	 2.620957
H	 1.520880	 1.034206	 1.652426
H	 3.175398	 0.911874	 3.498364
H	 1.884062	 0.894201	 4.681890
H	 2.158259	 2.322882	 3.706341
C	 0.824678	 -3.623490	 -0.043565
H	 -0.139967	 -3.792406	 0.411591
H	 1.544729	 -4.329140	 0.337866
H	 0.731980	 -3.727573	 -1.114467

11 8 5 9 F
