%nprocshared=4
%mem=2GB
#HF/cc-pVTZ nosymm scf=tight opt=ModRedundant

Mol

0 1
O	 -0.534404	 0.511699	 -2.847772
C	 -1.093810	 0.592004	 -1.802761
C	 -0.881910	 -0.448129	 -0.720509
C	 -2.026310	 1.737975	 -1.489768
C	 0.376695	 -0.140025	 0.100361
H	 -0.772233	 -1.409224	 -1.206697
H	 -1.746702	 -0.492821	 -0.067055
C	 1.630207	 -0.772146	 -0.501001
H	 0.486632	 0.935267	 0.162725
H	 0.248225	 -0.501310	 1.117842
C	 2.907848	 -0.545876	 0.309149
H	 1.772784	 -0.391628	 -1.509394
H	 1.468529	 -1.842059	 -0.599744
C	 3.373802	 0.906639	 0.372125
H	 3.699140	 -1.146831	 -0.127906
H	 2.764321	 -0.923458	 1.318191
H	 3.519798	 1.311927	 -0.623875
H	 4.316899	 0.983758	 0.900700
H	 2.661122	 1.540651	 0.885346
H	 -3.041111	 1.361026	 -1.411748
H	 -1.977274	 2.481386	 -2.270476
H	 -1.776457	 2.184895	 -0.534035

6 3 5 8 F
