%nprocshared=1
%mem=2GB
#HF/6-31G* nosymm scf=tight 

Mol

0 1
O	 1.542718	 0.226467	 0.159035
C	 2.701189	 0.057885	 -0.047330
C	 3.625805	 1.037999	 -0.727954
O	 3.347903	 -1.046386	 0.304773
C	 2.928785	 2.332332	 -1.141451
H	 4.452283	 1.220002	 -0.048984
H	 4.055054	 0.532463	 -1.589276
C	 3.827651	 3.293763	 -1.926424
H	 2.542020	 2.829703	 -0.257056
H	 2.063859	 2.081340	 -1.745875
C	 4.996079	 3.880806	 -1.129387
H	 3.209675	 4.111426	 -2.290094
H	 4.211818	 2.789499	 -2.811943
C	 5.796517	 4.916059	 -1.922198
H	 4.613050	 4.341893	 -0.220263
H	 5.667831	 3.087324	 -0.809845
C	 6.969834	 5.505653	 -1.137445
H	 5.133536	 5.721096	 -2.234617
H	 6.170799	 4.458542	 -2.836687
C	 7.761671	 6.541393	 -1.934903
H	 6.597709	 5.962368	 -0.222800
H	 7.635932	 4.702934	 -0.828030
H	 8.586159	 6.940655	 -1.352310
H	 7.130771	 7.375237	 -2.229629
H	 8.176423	 6.106162	 -2.839794
C	 4.728119	 -1.109107	 -0.004993
H	 4.882018	 -1.033965	 -1.071845
H	 5.068212	 -2.067527	 0.355250
H	 5.265056	 -0.311663	 0.488280

21 17 14 11 F
17 14 11 15 F
15 11 8 5 F
6 3 5 9 F
11 8 5 9 F
2 4 26 27 F
6 3 2 1 F
