%nprocshared=4
%mem=2GB
#HF/cc-pVTZ nosymm scf=tight opt=ModRedundant

Mol

0 1
H	 -2.564233	 1.857287	 1.760576
C	 -2.055369	 0.970447	 2.131328
O	 -0.771436	 0.867159	 1.613266
H	 -1.973610	 1.040470	 3.206177
H	 -2.658341	 0.098929	 1.882803
C	 -0.718530	 0.758693	 0.228682
C	 0.718529	 0.758687	 -0.228709
H	 -1.192096	 -0.167886	 -0.095598
H	 -1.243765	 1.586589	 -0.242642
O	 1.401606	 -0.295166	 0.366636
H	 0.748705	 0.673477	 -1.312803
H	 1.176496	 1.708671	 0.046552
C	 2.714315	 -0.441627	 -0.061017
H	 2.765292	 -0.641548	 -1.128869
H	 3.305661	 0.447341	 0.150952
H	 3.143725	 -1.278506	 0.470147

3 6 7 11 F
