%nprocshared=1
%mem=2GB
#HF/6-31G* nosymm scf=tight opt=ModRedundant

Mol

0 1
O	 -0.495907	 0.104786	 0.667748
C	 0.486307	 0.169203	 0.000779
C	 1.608116	 -0.841643	 0.000302
O	 0.730282	 1.159628	 -0.846064
C	 2.990107	 -0.200498	 -0.000684
H	 1.468623	 -1.481519	 -0.865924
H	 1.469683	 -1.481289	 0.866878
H	 3.129736	 0.423364	 -0.875135
H	 3.757882	 -0.966877	 -0.001197
H	 3.130964	 0.423383	 0.873533
C	 -0.245648	 2.191138	 -0.950698
C	 0.259653	 3.192486	 -1.967696
H	 -0.385159	 2.644332	 0.021278
H	 -1.188248	 1.755427	 -1.252779
H	 1.206866	 3.615626	 -1.653213
H	 -0.457077	 3.999675	 -2.079010
H	 0.399360	 2.721965	 -2.934313

4 2 3 6 F
