%nprocshared=1
%mem=2GB
#HF/6-31G* nosymm scf=tight opt=ModRedundant

Mol

0 1
H	 -3.420663	 1.227371	 -1.044276
O	 -3.452007	 0.283848	 -0.965577
C	 -3.181085	 -0.079926	 0.364119
C	 -1.765924	 0.277073	 0.805136
H	 -3.327791	 -1.152017	 0.410903
H	 -3.905698	 0.375695	 1.036898
C	 -0.677594	 -0.417312	 -0.014550
H	 -1.637766	 1.358238	 0.744969
H	 -1.659588	 0.017670	 1.857098
C	 0.738335	 -0.034840	 0.421385
H	 -0.814977	 -0.178223	 -1.064632
H	 -0.802730	 -1.495410	 0.071702
C	 0.869236	 0.124775	 1.938446
H	 1.434164	 -0.791093	 0.065969
H	 1.026982	 0.897268	 -0.062827
C	 2.247745	 0.594097	 2.417618
H	 0.624227	 -0.819672	 2.421855
H	 0.123861	 0.840761	 2.278441
C	 3.380197	 -0.404864	 2.172601
H	 2.189853	 0.799904	 3.483724
H	 2.491550	 1.540756	 1.939497
H	 3.158111	 -1.365808	 2.629112
H	 4.311137	 -0.044625	 2.599704
H	 3.552136	 -0.573025	 1.114620

13 10 7 11 F
