%nprocshared=4
%mem=2GB
#HF/cc-pVTZ nosymm scf=tight opt=ModRedundant

Mol

0 1
H	 0.559871	 -3.346639	 -0.734483
O	 0.921754	 -2.606501	 -0.270875
C	 0.116995	 -1.562917	 -0.451782
C	 0.626018	 -0.337582	 0.258241
O	 -0.869001	 -1.635093	 -1.100198
C	 -0.267326	 0.883135	 0.076490
H	 0.741926	 -0.606795	 1.301289
H	 1.628560	 -0.149021	 -0.112955
C	 -1.726822	 0.642622	 0.463839
H	 -0.210803	 1.217591	 -0.953497
H	 0.129920	 1.693110	 0.675679
C	 -2.583661	 -0.016397	 -0.615772
H	 -2.169418	 1.601054	 0.718341
H	 -1.767146	 0.042689	 1.370427
C	 -4.050047	 -0.134763	 -0.213060
H	 -2.507782	 0.561494	 -1.533006
H	 -2.201585	 -1.005982	 -0.845327
H	 -4.635550	 -0.602858	 -0.995847
H	 -4.481224	 0.840771	 -0.015279
H	 -4.161703	 -0.732432	 0.685539

12 9 6 10 F
