%nprocshared=4
%mem=2GB
#HF/cc-pVTZ nosymm scf=tight opt=ModRedundant

Mol

0 1
H	 -3.162190	 0.493205	 -0.000107
C	 -2.363908	 -0.234727	 0.000005
O	 -1.158738	 0.454634	 -0.000087
H	 -2.464314	 -0.863616	 -0.882153
H	 -2.464327	 -0.863359	 0.882345
C	 -0.028611	 -0.359694	 0.000037
C	 1.212847	 0.509314	 -0.000053
H	 -0.034155	 -1.007047	 -0.877198
H	 -0.034195	 -1.006836	 0.877430
C	 2.492116	 -0.302825	 -0.168137
H	 1.124843	 1.237298	 -0.798939
H	 1.244004	 1.067198	 0.929326
H	 2.492434	 -0.850745	 -1.104550
H	 3.362271	 0.342032	 -0.164814
H	 2.612544	 -1.021765	 0.635411

11 7 6 8 F
