%nprocshared=4
%mem=2GB
#HF/cc-pVTZ nosymm scf=tight opt=ModRedundant

Mol

0 1
O	 -2.071633	 -1.227563	 -0.223463
C	 -1.652164	 -0.152425	 0.058082
C	 -0.327811	 0.006324	 0.778296
C	 -2.402515	 1.108629	 -0.298924
C	 0.843231	 -0.001575	 -0.211665
H	 -0.319484	 0.928173	 1.350354
H	 -0.227804	 -0.823091	 1.466705
C	 0.388935	 0.127500	 -1.662591
H	 1.415848	 -0.918426	 -0.096829
H	 1.512562	 0.815176	 0.035880
C	 1.550995	 0.132770	 -2.649886
H	 -0.285804	 -0.689462	 -1.903057
H	 -0.185639	 1.042129	 -1.775976
H	 2.124849	 -0.785649	 -2.584832
H	 2.226493	 0.958410	 -2.453954
H	 1.196997	 0.229566	 -3.669551
H	 -3.240910	 0.874416	 -0.936711
H	 -1.747554	 1.818823	 -0.790984
H	 -2.760419	 1.579708	 0.610998

9 5 3 2 F
