%nprocshared=4
%mem=2GB
#HF/cc-pVTZ nosymm scf=tight opt=ModRedundant

Mol

0 1
O	 -1.087956	 0.484988	 -2.621860
C	 -0.109314	 0.934219	 -2.119981
C	 -0.028050	 1.151256	 -0.621869
C	 1.107229	 1.293683	 -2.939479
C	 0.376695	 -0.140025	 0.100361
H	 -1.006976	 1.465588	 -0.282736
H	 0.681604	 1.939438	 -0.393779
C	 1.630207	 -0.772146	 -0.501001
H	 0.532746	 0.090702	 1.146612
H	 -0.440193	 -0.856282	 0.055993
C	 2.907848	 -0.545876	 0.309149
H	 1.772784	 -0.391628	 -1.509394
H	 1.468529	 -1.842059	 -0.599744
C	 3.373802	 0.906639	 0.372125
H	 3.699140	 -1.146831	 -0.127906
H	 2.764321	 -0.923458	 1.318191
H	 3.519798	 1.311927	 -0.623875
H	 4.316899	 0.983758	 0.900700
H	 2.661122	 1.540651	 0.885346
H	 1.239403	 2.370902	 -2.928171
H	 0.983114	 0.956716	 -3.957132
H	 2.001486	 0.856898	 -2.509232

3 5 8 12 F
