%nprocshared=4
%mem=2GB
#HF/cc-pVTZ nosymm scf=tight opt=ModRedundant

Mol

0 1
H	 -2.832109	 -0.661343	 0.918978
C	 -2.768027	 -0.308281	 -0.107727
O	 -1.448387	 -0.162153	 -0.513605
H	 -3.234501	 -1.036216	 -0.755339
H	 -3.316097	 0.629120	 -0.183782
C	 -0.718530	 0.758693	 0.228682
C	 0.718529	 0.758687	 -0.228709
H	 -1.130285	 1.759443	 0.098579
H	 -0.756483	 0.515577	 1.288344
O	 1.401606	 -0.295166	 0.366636
H	 0.748705	 0.673477	 -1.312803
H	 1.176496	 1.708671	 0.046552
C	 2.714315	 -0.441627	 -0.061017
H	 2.765292	 -0.641548	 -1.128869
H	 3.305661	 0.447341	 0.150952
H	 3.143725	 -1.278506	 0.470147

3 6 7 11 F
