%nprocshared=4
%mem=2GB
#HF/cc-pVTZ nosymm scf=tight opt=ModRedundant

Mol

0 1
H	 -1.870924	 1.954211	 1.153638
C	 -0.857577	 1.576931	 1.195565
C	 -0.600949	 0.658697	 -0.000002
H	 -0.728612	 1.043060	 2.127463
H	 -0.177782	 2.418316	 1.189457
C	 0.763408	 0.112229	 -0.000006
H	 -1.289610	 -0.175974	 0.001510
H	 -0.741884	 1.191534	 -0.931214
N	 1.806008	 -0.317179	 0.000007

7 3 6 9 F
