%nprocshared=4
%mem=2GB
#HF/cc-pVTZ nosymm scf=tight opt=ModRedundant

Mol

0 1
H	 -8.431541	 4.831690	 -2.029249
C	 -7.414385	 5.223068	 -2.167461
C	 -6.917571	 5.208907	 -3.587626
O	 -6.795669	 5.604399	 -1.235214
C	 -5.496095	 4.652666	 -3.712837
H	 -7.619597	 4.649844	 -4.192557
H	 -6.928793	 6.241188	 -3.930518
C	 -5.389812	 3.164105	 -3.388692
H	 -5.147709	 4.826853	 -4.725075
H	 -4.830603	 5.216391	 -3.063585
C	 -5.641798	 2.853761	 -1.915610
H	 -4.401408	 2.809737	 -3.669028
H	 -6.093564	 2.603438	 -3.998457
C	 -6.900381	 3.527547	 -1.372262
H	 -5.712107	 1.777833	 -1.789991
H	 -4.783435	 3.174665	 -1.329493
C	 -7.827821	 4.111512	 -2.439380
H	 -6.614724	 4.314215	 -0.677756
H	 -7.459838	 2.800038	 -0.790848
C	 -7.244121	 5.287623	 -3.218572
H	 -8.743922	 4.435874	 -1.955707
H	 -8.114795	 3.326049	 -3.133643
H	 -6.941812	 6.086551	 -2.549005
H	 -6.377675	 4.999038	 -3.801388
H	 -7.976863	 5.694192	 -3.906144

8 11 14 18 F
