%nprocshared=4
%mem=2GB
#HF/cc-pVTZ nosymm scf=tight opt=ModRedundant

Mol

0 1
O	 2.868453	 1.353349	 -0.000734
C	 2.841259	 0.166180	 -0.000295
C	 1.542794	 -0.614730	 -0.000853
C	 4.113372	 -0.651103	 0.000743
C	 0.288398	 0.247429	 0.000314
H	 1.557171	 -1.273139	 -0.866508
H	 1.557484	 -1.274998	 0.863344
C	 -0.993089	 -0.581367	 -0.000217
H	 0.305153	 0.900562	 -0.864701
H	 0.305567	 0.898805	 0.866656
C	 -2.258482	 0.271340	 0.000669
H	 -1.002280	 -1.233920	 -0.870484
H	 -1.002061	 -1.235367	 0.868958
C	 -2.008929	 1.727990	 0.380972
H	 -2.980780	 -0.160016	 0.689386
H	 -2.717955	 0.231805	 -0.983937
C	 -3.278030	 2.573667	 0.379716
H	 -1.550746	 1.768535	 1.365534
H	 -1.288015	 2.160346	 -0.307701
H	 -4.006522	 2.186942	 1.084544
H	 -3.066261	 3.600866	 0.653648
H	 -3.741699	 2.581865	 -0.601093
H	 4.145311	 -1.294584	 -0.871587
H	 4.970080	 0.004978	 -0.000091
H	 4.145223	 -1.291980	 0.874988

15 11 8 12 F
