%nprocshared=1
%mem=2GB
#HF/6-31G* nosymm scf=tight 

Mol

0 1
H	 0.656479	 4.613011	 1.128543
N	 -0.153534	 4.031177	 1.034244
C	 0.214576	 2.708977	 0.548641
H	 -0.763240	 4.487399	 0.382363
C	 -1.006197	 1.796289	 0.498949
H	 0.943491	 2.295488	 1.238979
H	 0.691489	 2.730279	 -0.434466
C	 -0.679275	 0.379305	 0.025956
H	 -1.453762	 1.768011	 1.488252
H	 -1.751423	 2.234620	 -0.164256
C	 -1.903357	 -0.536963	 -0.023547
H	 0.067661	 -0.058235	 0.686633
H	 -0.224067	 0.420898	 -0.962428
C	 -3.225172	 0.228290	 0.028445
H	 -1.867824	 -1.134999	 -0.931459
H	 -1.860449	 -1.239604	 0.805977
H	 -3.313397	 0.915643	 -0.808262
H	 -4.073500	 -0.448134	 -0.008893
H	 -3.306061	 0.809945	 0.942516

6 3 5 9 F
12 8 5 9 F
1 2 3 6 F
