%nprocshared=4
%mem=2GB
#HF/6-31G* nosymm scf=tight opt=ModRedundant

Mol

0 1
H	 1.899215	 -1.590850	 0.102346
O	 1.223589	 -1.011073	 -0.218709
C	 1.135793	 0.118896	 0.612333
C	 0.031547	 1.023609	 0.088541
H	 2.077119	 0.665517	 0.612390
H	 0.934080	 -0.177462	 1.639263
C	 -1.134819	 0.293262	 -0.585751
H	 0.474374	 1.714721	 -0.623187
H	 -0.338529	 1.620940	 0.920081
C	 -1.917817	 -0.639439	 0.339494
H	 -0.758119	 -0.268455	 -1.433105
H	 -1.813832	 1.041889	 -0.986690
H	 -2.777680	 -1.057197	 -0.174994
H	 -1.310268	 -1.471279	 0.680599
H	 -2.283753	 -0.111424	 1.216626

2 3 4 8 F
