%nprocshared=4
%mem=2GB
#HF/cc-pVTZ nosymm scf=tight opt=ModRedundant

Mol

0 1
H	 3.273419	 0.176595	 -0.102789
N	 2.433987	 -0.362316	 -0.080024
C	 1.263552	 0.494993	 0.021953
H	 2.497638	 -0.973615	 0.707122
C	 -0.016533	 -0.325589	 -0.026925
H	 1.280915	 1.180773	 -0.818522
H	 1.263064	 1.106893	 0.925038
C	 -1.280353	 0.525521	 0.047747
H	 -0.016686	 -0.912532	 -0.939714
H	 -0.014099	 -1.037598	 0.796369
C	 -1.328422	 1.414988	 1.285700
H	 -2.151484	 -0.124110	 0.039042
H	 -1.354012	 1.144851	 -0.842129
H	 -1.290584	 0.822934	 2.193868
H	 -2.238414	 2.003361	 1.311848
H	 -0.489378	 2.102570	 1.306108

12 8 5 9 F
