%nprocshared=4
%mem=2GB
#HF/6-31G* nosymm scf=tight opt=ModRedundant

Mol

0 1
H	 1.136379	 0.211822	 1.465562
C	 1.135357	 0.094285	 0.374742
C	 0.065331	 0.871482	 -0.349150
O	 1.941633	 -0.601957	 -0.151457
C	 -1.173920	 0.017741	 -0.653885
H	 0.495414	 1.283444	 -1.254815
H	 -0.220657	 1.702205	 0.294488
C	 -0.905506	 -1.098331	 -1.664212
H	 -1.955569	 0.668551	 -1.032675
H	 -1.555936	 -0.408013	 0.271554
H	 -0.555955	 -0.691821	 -2.608188
H	 -1.808463	 -1.667278	 -1.859877
H	 -0.149982	 -1.791853	 -1.307000

6 3 2 4 F
