%nprocshared=4
%mem=2GB
#HF/cc-pVTZ nosymm scf=tight opt=ModRedundant

Mol

0 1
H	 1.323104	 6.611667	 -0.453079
C	 0.308828	 6.310426	 -0.688378
C	 0.162222	 4.792998	 -0.653131
H	 -0.351509	 6.781240	 0.031695
H	 0.065184	 6.706414	 -1.669006
C	 -1.253424	 4.330539	 -0.990843
H	 0.435954	 4.430065	 0.330886
H	 0.861688	 4.348381	 -1.357322
C	 -1.428660	 2.815375	 -0.969514
H	 -1.955430	 4.776446	 -0.297169
H	 -1.516351	 4.689941	 -1.981542
C	 -1.409147	 2.193870	 0.416789
H	 -2.387862	 2.549049	 -1.406282
H	 -0.679382	 2.328529	 -1.586833
C	 -1.180025	 0.697761	 0.509157
O	 -1.586719	 2.845193	 1.395319
C	 -2.285431	 -0.137488	 -0.145671
H	 -1.101092	 0.453550	 1.559856
H	 -0.227658	 0.466905	 0.039157
C	 -3.646545	 0.082747	 0.508954
H	 -2.348635	 0.118247	 -1.199806
H	 -2.034895	 -1.192387	 -0.096473
C	 -4.757412	 -0.737227	 -0.138149
H	 -3.900211	 1.137405	 0.459735
H	 -3.580878	 -0.166775	 1.564416
H	 -4.867876	 -0.486707	 -1.187777
H	 -4.549650	 -1.800049	 -0.072540
H	 -5.709585	 -0.556397	 0.346597

12 15 17 21 F
