%nprocshared=1
%mem=2GB
#HF/6-31G* nosymm scf=tight 

Mol

0 1
O	 1.214711	 1.306902	 -0.000018
C	 1.122059	 0.121804	 -0.000188
C	 -0.170150	 -0.657997	 -0.000612
O	 2.172624	 -0.688929	 0.000216
C	 -1.412532	 0.227344	 -0.000452
H	 -0.153702	 -1.313099	 -0.867402
H	 -0.153924	 -1.313811	 0.865644
C	 -1.322877	 1.354778	 1.029218
H	 -2.287828	 -0.383439	 0.197801
H	 -1.554926	 0.645190	 -0.992234
C	 -2.563045	 2.247499	 1.035235
H	 -1.179441	 0.930663	 2.020998
H	 -0.442774	 1.962072	 0.827516
H	 -3.456261	 1.675134	 1.268083
H	 -2.474057	 3.038021	 1.773769
H	 -2.713972	 2.714385	 0.066278
C	 3.452279	 -0.082609	 0.000533
H	 3.583069	 0.529321	 -0.880332
H	 4.163299	 -0.894027	 0.001117
H	 3.582335	 0.529955	 0.881077

9 5 8 12 F
1 2 3 6 F
1 2 4 17 F
