%nprocshared=4
%mem=2GB
#HF/cc-pVTZ nosymm scf=tight opt=ModRedundant

Mol

0 1
H	 2.190573	 -0.629143	 -0.208718
O	 1.355408	 -0.529451	 0.208662
C	 0.700177	 0.619554	 -0.266242
C	 -0.713111	 0.588314	 0.266177
H	 0.678680	 0.627133	 -1.351786
H	 1.199747	 1.521489	 0.077736
O	 -1.421673	 -0.521378	 -0.196983
H	 -1.244794	 1.469161	 -0.069059
H	 -0.685100	 0.604721	 1.352683
H	 -1.823139	 -0.948761	 0.539354

10 7 4 3 F
