%nprocshared=4
%mem=2GB
#HF/6-31G* nosymm scf=tight opt=ModRedundant

Mol

0 1
H	 2.591676	 2.013956	 0.335017
O	 3.341076	 1.666752	 -0.126416
C	 3.569581	 0.339145	 0.272707
C	 2.539767	 -0.640285	 -0.279495
H	 4.553106	 0.084646	 -0.100901
H	 3.608576	 0.269204	 1.359154
C	 2.268161	 -0.479143	 -1.777203
H	 2.882825	 -1.651666	 -0.077539
H	 1.611664	 -0.503784	 0.273098
C	 1.191229	 -1.439619	 -2.289571
H	 3.190948	 -0.642074	 -2.327007
H	 1.958516	 0.546046	 -1.980794
C	 0.819510	 -1.261703	 -3.766226
H	 1.516417	 -2.464705	 -2.121351
H	 0.293490	 -1.304638	 -1.689950
C	 1.933237	 -1.609881	 -4.757620
H	 -0.043141	 -1.889536	 -3.979476
H	 0.494856	 -0.235898	 -3.934039
C	 1.482352	 -1.518267	 -6.216985
H	 2.291069	 -2.618524	 -4.555861
H	 2.784614	 -0.949574	 -4.611149
C	 2.593980	 -1.859101	 -7.208841
H	 0.639612	 -2.187591	 -6.375990
H	 1.115408	 -0.513823	 -6.417807
H	 2.960207	 -2.870257	 -7.055007
H	 2.242998	 -1.787088	 -8.233664
H	 3.437650	 -1.183229	 -7.100300

8 4 3 2 F
