%nprocshared=1
%mem=2GB
#HF/6-31G* nosymm scf=tight opt=ModRedundant

Mol

0 1
H	 4.288816	 -0.262966	 -1.603358
C	 3.559528	 -0.669312	 -0.909981
C	 2.270474	 0.151121	 -0.923924
H	 3.371676	 -1.700356	 -1.196143
H	 4.012355	 -0.677931	 0.077500
C	 1.217350	 -0.386724	 0.039429
H	 1.847870	 0.168301	 -1.923674
H	 2.498459	 1.184029	 -0.666019
N	 0.000003	 0.397874	 -0.023260
H	 0.970475	 -1.409159	 -0.233779
H	 1.634144	 -0.429138	 1.051290
C	 -1.217365	 -0.386708	 0.039277
H	 -0.000031	 1.072115	 0.718656
C	 -2.452633	 0.504241	 -0.042481
H	 -1.215291	 -1.074557	 -0.802042
H	 -1.269739	 -1.003477	 0.942735
C	 -3.758029	 -0.289423	 -0.010781
H	 -2.394220	 1.093569	 -0.952170
H	 -2.440793	 1.210787	 0.785871
H	 -3.816659	 -0.981993	 -0.845726
H	 -4.617837	 0.370165	 -0.069296
H	 -3.847478	 -0.867502	 0.904682

10 6 9 12 F
