%nprocshared=4
%mem=2GB
#HF/cc-pVTZ nosymm scf=tight opt=ModRedundant

Mol

0 1
H	 -1.088256	 -1.364742	 0.152233
O	 -1.432053	 -0.565244	 -0.200812
C	 -0.727158	 0.534527	 0.310686
C	 0.680222	 0.664433	 -0.252229
H	 -1.306802	 1.408001	 0.044211
H	 -0.690821	 0.490158	 1.397609
C	 0.794639	 1.651875	 -1.409775
H	 1.348013	 0.960917	 0.549883
H	 1.000487	 -0.319486	 -0.583865
H	 0.539893	 2.659577	 -1.100315
H	 1.806592	 1.682510	 -1.795216
H	 0.138421	 1.375152	 -2.229385

8 4 3 2 F
