%nprocshared=4
%mem=2GB
#HF/6-31G* nosymm scf=tight opt=ModRedundant

Mol

0 1
O	 3.225979	 0.970355	 -0.599647
C	 2.701189	 0.057885	 -0.047330
C	 1.245376	 -0.013843	 0.345420
O	 3.347903	 -1.046386	 0.304773
C	 0.455112	 1.231400	 -0.050772
H	 0.838542	 -0.913825	 -0.103701
H	 1.208210	 -0.175333	 1.419774
C	 -0.998893	 1.219485	 0.433193
H	 0.482531	 1.345121	 -1.130325
H	 0.957290	 2.103070	 0.354729
C	 -1.300412	 0.211660	 1.546066
H	 -1.635859	 0.996222	 -0.419540
H	 -1.278753	 2.218274	 0.765016
C	 -2.783975	 0.160893	 1.916823
H	 -0.974783	 -0.778239	 1.230019
H	 -0.724147	 0.453033	 2.436363
C	 -3.096280	 -0.839089	 3.031558
H	 -3.367081	 -0.093438	 1.033342
H	 -3.112853	 1.152847	 2.222708
C	 -4.580428	 -0.886417	 3.393169
H	 -2.767365	 -1.830695	 2.727952
H	 -2.517637	 -0.583941	 3.916912
H	 -4.769942	 -1.603786	 4.185680
H	 -5.183703	 -1.173168	 2.536414
H	 -4.932090	 0.083372	 3.733928
C	 4.728119	 -1.109107	 -0.004993
H	 4.882018	 -1.033965	 -1.071845
H	 5.068212	 -2.067527	 0.355250
H	 5.265056	 -0.311663	 0.488280

11 8 5 9 F
