%nprocshared=4
%mem=2GB
#HF/cc-pVTZ nosymm scf=tight opt=ModRedundant

Mol

0 1
O	 -2.374409	 1.338660	 -0.336961
C	 -2.104891	 0.204655	 -0.107126
C	 -0.881910	 -0.448129	 -0.720509
C	 -2.949910	 -0.638219	 0.818225
C	 -0.836155	 -0.216780	 -2.236169
H	 -0.940224	 -1.509815	 -0.516713
H	 0.021457	 -0.061402	 -0.260904
C	 0.378237	 -0.875863	 -2.886837
H	 -1.752371	 -0.601317	 -2.666177
H	 -0.816520	 0.850403	 -2.443619
C	 0.506376	 -0.628592	 -4.390946
H	 0.345258	 -1.946520	 -2.700867
H	 1.277330	 -0.509972	 -2.398617
C	 -0.596211	 -1.260555	 -5.236997
H	 1.464514	 -1.018653	 -4.719781
H	 0.536227	 0.441804	 -4.577210
H	 -0.652578	 -2.330721	 -5.066245
H	 -0.405751	 -1.104939	 -6.292592
H	 -1.569655	 -0.839432	 -5.017133
H	 -3.440322	 -1.417144	 0.243099
H	 -3.694377	 -0.025850	 1.303346
H	 -2.331085	 -1.129829	 1.560495

6 3 2 1 F
