%nprocshared=4
%mem=2GB
#HF/cc-pVTZ nosymm scf=tight opt=ModRedundant

Mol

0 1
O	 -0.427360	 -1.392182	 -0.665010
C	 0.595354	 -1.297218	 -0.076775
C	 1.246364	 -0.005813	 0.348416
O	 1.317782	 -2.342573	 0.292610
C	 0.453207	 1.232821	 -0.049003
H	 1.394842	 -0.066917	 1.419758
H	 2.239873	 0.009843	 -0.088647
C	 -0.998367	 1.217982	 0.432195
H	 0.481498	 1.345443	 -1.127236
H	 0.951413	 2.105557	 0.354893
C	 -1.570891	 -0.168975	 0.720244
H	 -1.609422	 1.693161	 -0.329370
H	 -1.090864	 1.837494	 1.321537
C	 -0.649756	 -1.027221	 1.583210
H	 -2.531522	 -0.061334	 1.218716
H	 -1.767247	 -0.693349	 -0.210354
C	 0.635513	 -1.442676	 0.873102
H	 -1.185102	 -1.917742	 1.903708
H	 -0.396998	 -0.482736	 2.490136
C	 1.549573	 -2.301247	 1.740931
H	 0.384564	 -1.987026	 -0.033224
H	 1.173173	 -0.553677	 0.554575
H	 2.451682	 -2.578245	 1.207587
H	 1.052647	 -3.215810	 2.047116
H	 1.846618	 -1.771470	 2.639991
C	 0.824678	 -3.623490	 -0.043565
H	 -0.139967	 -3.792406	 0.411591
H	 1.544729	 -4.329140	 0.337866
H	 0.731980	 -3.727573	 -1.114467

11 8 5 9 F
