%nprocshared=4
%mem=2GB
#HF/cc-pVTZ nosymm scf=tight opt=ModRedundant

Mol

0 1
H	 -0.293828	 3.968221	 -1.119290
O	 -0.566329	 3.184708	 -0.678944
C	 0.497941	 2.270729	 -0.615789
C	 0.027642	 1.012027	 0.090274
H	 1.330724	 2.697600	 -0.062596
H	 0.857323	 2.037634	 -1.614274
C	 -1.138737	 0.285728	 -0.581921
H	 -0.261157	 1.282909	 1.100583
H	 0.877841	 0.339681	 0.175874
C	 -1.933983	 -0.631436	 0.343653
H	 -0.763151	 -0.285569	 -1.422081
H	 -1.808359	 1.035291	 -0.992333
H	 -2.789188	 -1.049673	 -0.174718
H	 -1.335629	 -1.461368	 0.700418
H	 -2.305435	 -0.092167	 1.209725

8 4 7 11 F
