%nprocshared=4
%mem=2GB
#HF/cc-pVTZ nosymm scf=tight opt=ModRedundant

Mol

0 1
O	 3.219313	 0.959291	 -0.614106
C	 2.698710	 0.058177	 -0.050237
C	 1.246364	 -0.005813	 0.348416
O	 3.344101	 -1.038700	 0.312317
C	 0.453207	 1.232821	 -0.049003
H	 0.839270	 -0.907818	 -0.092281
H	 1.216683	 -0.160521	 1.422434
C	 -0.998367	 1.217982	 0.432195
H	 0.481498	 1.345443	 -1.127236
H	 0.951413	 2.105557	 0.354893
C	 -1.882951	 0.151251	 -0.211235
H	 -1.429490	 2.193659	 0.228843
H	 -1.019755	 1.099323	 1.513279
C	 -1.848179	 -1.180972	 0.532916
H	 -2.907629	 0.513803	 -0.249479
H	 -1.579690	 -0.015134	 -1.240742
C	 -0.503621	 -1.896223	 0.436219
H	 -2.627718	 -1.830651	 0.142307
H	 -2.089537	 -1.013788	 1.580132
C	 -0.477323	 -3.227046	 1.180529
H	 -0.261188	 -2.064154	 -0.609604
H	 0.276246	 -1.249283	 0.828816
H	 0.490114	 -3.707907	 1.092087
H	 -1.223045	 -3.910028	 0.787406
H	 -0.682363	 -3.088768	 2.236959
C	 4.720529	 -1.114346	 0.001449
H	 4.874321	 -1.055557	 -1.065852
H	 5.057824	 -2.067950	 0.373977
H	 5.264321	 -0.313596	 0.480350

15 11 8 5 F
