%nprocshared=4
%mem=2GB
#HF/cc-pVTZ nosymm scf=tight opt=ModRedundant

Mol

0 1
O	 -2.817697	 1.304178	 0.001046
C	 -2.664672	 0.129869	 0.003507
C	 -3.797908	 -0.860100	 -0.001145
O	 -1.481217	 -0.452708	 0.001092
H	 -4.408836	 -0.679689	 -0.875387
H	 -3.443486	 -1.878443	 -0.002770
H	 -4.412123	 -0.683688	 0.871605
C	 -0.332055	 0.384012	 -0.000250
C	 0.892252	 -0.506059	 -0.000295
H	 -0.360822	 1.020205	 -0.874146
H	 -0.359817	 1.021310	 0.872861
C	 2.188199	 0.299473	 -0.001416
H	 0.857046	 -1.152781	 -0.871031
H	 0.857910	 -1.151798	 0.871202
C	 2.014661	 1.710147	 -0.557304
H	 2.578121	 0.360392	 1.011613
H	 2.940287	 -0.224582	 -0.585971
C	 3.309708	 2.515042	 -0.559699
H	 1.264606	 2.235433	 0.027117
H	 1.625204	 1.650546	 -1.569656
H	 3.706268	 2.621521	 0.444416
H	 3.152235	 3.509829	 -0.959834
H	 4.069770	 2.031922	 -1.164475

16 12 9 13 F
