%nprocshared=4
%mem=2GB
#HF/cc-pVTZ nosymm scf=tight opt=ModRedundant

Mol

0 1
H	 -1.348303	 -1.996154	 -1.104378
N	 -0.641505	 -1.295853	 -1.179130
C	 -0.561396	 -0.500007	 0.035200
H	 -0.874220	 -0.724957	 -1.964788
C	 0.575129	 0.507849	 -0.048832
H	 -0.377891	 -1.175936	 0.863852
H	 -1.490056	 0.026396	 0.260818
C	 1.951750	 -0.141983	 0.035101
H	 0.478254	 1.061643	 -0.975981
H	 0.467676	 1.231891	 0.755499
H	 2.101550	 -0.848142	 -0.774949
H	 2.738260	 0.600794	 -0.026526
H	 2.078939	 -0.679792	 0.968824

6 3 5 9 F
