%nprocshared=1
%mem=2GB
#HF/6-31G* nosymm scf=tight 

Mol

0 1
H	 -3.268288	 -0.291324	 1.444831
C	 -3.308529	 -0.268686	 0.348706
C	 -2.656284	 0.931914	 -0.288279
O	 -3.839083	 -1.148750	 -0.247742
C	 -1.218017	 1.149660	 0.201853
H	 -2.696734	 0.812313	 -1.364740
H	 -3.259345	 1.800328	 -0.025925
C	 -0.250753	 0.046504	 -0.234893
H	 -0.867683	 2.106292	 -0.174184
H	 -1.214936	 1.231934	 1.287661
C	 1.180775	 0.282413	 0.250794
H	 -0.258878	 -0.024632	 -1.320582
H	 -0.599641	 -0.916864	 0.132174
C	 2.148627	 -0.814315	 -0.201312
H	 1.519989	 1.250133	 -0.110017
H	 1.187389	 0.341227	 1.338397
C	 3.580890	 -0.659131	 0.322722
H	 2.166869	 -0.852443	 -1.289387
H	 1.762857	 -1.776509	 0.128956
C	 4.324889	 0.564933	 -0.213704
H	 4.142010	 -1.551473	 0.056605
H	 3.564836	 -0.624694	 1.410140
H	 4.342616	 0.565491	 -1.300421
H	 3.866655	 1.493402	 0.110242
H	 5.353900	 0.572371	 0.132816

6 3 5 8 F
6 3 2 4 F
3 5 8 12 F
12 8 11 14 F
20 17 14 18 F
