%nprocshared=4
%mem=2GB
#HF/cc-pVTZ nosymm scf=tight opt=ModRedundant

Mol

0 1
H	 -3.162190	 0.493205	 -0.000107
C	 -2.363908	 -0.234727	 0.000005
O	 -1.158738	 0.454634	 -0.000087
H	 -2.464314	 -0.863616	 -0.882153
H	 -2.464327	 -0.863359	 0.882345
C	 -0.028611	 -0.359694	 0.000037
C	 1.212847	 0.509314	 -0.000053
H	 -0.034155	 -1.007047	 -0.877198
H	 -0.034195	 -1.006836	 0.877430
C	 2.279427	 0.001138	 0.963541
H	 1.608275	 0.546649	 -1.009096
H	 0.925654	 1.521920	 0.260908
H	 2.599159	 -1.003024	 0.705632
H	 3.154094	 0.639547	 0.943214
H	 1.912084	 -0.020953	 1.984148

11 7 6 8 F
