%nprocshared=1
%mem=2GB
#HF/6-31G* nosymm scf=tight opt=ModRedundant

Mol

0 1
H	 2.591676	 2.013956	 0.335017
O	 3.341076	 1.666752	 -0.126416
C	 3.569581	 0.339145	 0.272707
C	 2.539767	 -0.640285	 -0.279495
H	 4.553106	 0.084646	 -0.100901
H	 3.608576	 0.269204	 1.359154
C	 1.795729	 -1.433901	 0.797283
H	 1.825778	 -0.086040	 -0.883149
H	 3.052316	 -1.330165	 -0.947871
C	 0.808568	 -2.446291	 0.209576
H	 1.264170	 -0.743591	 1.446345
H	 2.517113	 -1.960124	 1.422612
C	 0.098435	 -3.327944	 1.243374
H	 0.064915	 -1.917907	 -0.384257
H	 1.345573	 -3.091661	 -0.482396
C	 -0.859810	 -2.582603	 2.176494
H	 -0.461603	 -4.094439	 0.711718
H	 0.842863	 -3.855813	 1.837527
C	 -1.622228	 -3.517144	 3.118187
H	 -1.572903	 -2.015228	 1.580093
H	 -0.312825	 -1.854913	 2.771118
C	 -2.574720	 -2.775120	 4.055109
H	 -2.184581	 -4.239676	 2.530653
H	 -0.911204	 -4.091921	 3.708071
H	 -3.319100	 -2.216080	 3.495112
H	 -3.101264	 -3.464407	 4.708002
H	 -2.037345	 -2.070198	 4.683343

8 4 3 2 F
