%nprocshared=4
%mem=2GB
#HF/cc-pVTZ nosymm scf=tight opt=ModRedundant

Mol

0 1
H	 -8.663548	 3.019077	 -0.318902
C	 -8.503430	 2.439594	 -1.238384
C	 -8.052472	 1.020464	 -1.022514
O	 -8.676529	 2.944265	 -2.293207
C	 -6.879170	 0.627523	 -1.925086
H	 -7.811182	 0.891234	 0.024583
H	 -8.906173	 0.385718	 -1.249661
C	 -5.581098	 1.362194	 -1.597292
H	 -6.720692	 -0.441668	 -1.835346
H	 -7.148139	 0.806504	 -2.963265
C	 -5.641798	 2.853761	 -1.915610
H	 -4.765688	 0.906688	 -2.152925
H	 -5.338536	 1.229746	 -0.546079
C	 -6.900381	 3.527547	 -1.372262
H	 -4.757470	 3.335931	 -1.510860
H	 -5.599424	 2.992482	 -2.993691
C	 -7.827821	 4.111512	 -2.439380
H	 -6.614724	 4.314215	 -0.677756
H	 -7.459838	 2.800038	 -0.790848
C	 -7.244121	 5.287623	 -3.218572
H	 -8.743922	 4.435874	 -1.955707
H	 -8.114795	 3.326049	 -3.133643
H	 -6.941812	 6.086551	 -2.549005
H	 -6.377675	 4.999038	 -3.801388
H	 -7.976863	 5.694192	 -3.906144

8 11 14 18 F
