%nprocshared=4
%mem=2GB
#HF/cc-pVTZ nosymm scf=tight opt=ModRedundant

Mol

0 1
H	 3.273419	 0.176595	 -0.102789
N	 2.433987	 -0.362316	 -0.080024
C	 1.263552	 0.494993	 0.021953
H	 2.497638	 -0.973615	 0.707122
C	 -0.016533	 -0.325589	 -0.026925
H	 1.280915	 1.180773	 -0.818522
H	 1.263064	 1.106893	 0.925038
C	 -1.280353	 0.525521	 0.047747
H	 -0.016686	 -0.912532	 -0.939714
H	 -0.014099	 -1.037598	 0.796369
C	 -2.101751	 0.487972	 -1.236732
H	 -1.007803	 1.553974	 0.269032
H	 -1.896175	 0.188925	 0.877410
H	 -1.524403	 0.850737	 -2.080414
H	 -2.989553	 1.104303	 -1.153706
H	 -2.421358	 -0.522928	 -1.467199

12 8 5 9 F
