%nprocshared=1
%mem=2GB
#HF/6-31G* nosymm scf=tight 

Mol

0 1
O	 -0.672478	 -0.090880	 0.058361
C	 0.486307	 0.169203	 0.000779
C	 1.608116	 -0.841643	 0.000302
O	 0.954107	 1.407656	 -0.069975
C	 2.990107	 -0.200498	 -0.000684
H	 1.468623	 -1.481519	 -0.865924
H	 1.469683	 -1.481289	 0.866878
H	 3.129736	 0.423364	 -0.875135
H	 3.757882	 -0.966877	 -0.001197
H	 3.130964	 0.423383	 0.873533
C	 0.005717	 2.469684	 -0.077387
C	 0.779402	 3.768436	 -0.160840
H	 -0.590087	 2.416530	 0.823600
H	 -0.657459	 2.344326	 -0.922417
H	 1.442831	 3.876388	 0.689670
H	 0.091966	 4.608087	 -0.168982
H	 1.375088	 3.803919	 -1.065912

2 4 11 13 F
11 4 2 3 F
