%nprocshared=1
%mem=2GB
#HF/6-31G* nosymm scf=tight opt=ModRedundant

Mol

0 1
O	 -2.042549	 -1.228399	 -0.269030
C	 -1.653912	 -0.146171	 0.050137
C	 -0.332303	 0.024011	 0.778412
C	 -2.438579	 1.106236	 -0.272369
C	 0.845713	 -0.001731	 -0.208243
H	 -0.323783	 0.953829	 1.340327
H	 -0.235459	 -0.796807	 1.480410
C	 2.198910	 -0.126430	 0.493426
H	 0.838137	 0.902702	 -0.814070
H	 0.707253	 -0.834702	 -0.890978
C	 3.371568	 -0.161291	 -0.485789
H	 2.327097	 0.705699	 1.182306
H	 2.205975	 -1.029702	 1.098916
H	 3.411524	 0.745117	 -1.083185
H	 3.287781	 -1.002773	 -1.167207
H	 4.317108	 -0.253116	 0.039139
H	 -3.277823	 0.863061	 -0.908988
H	 -1.806773	 1.843019	 -0.759671
H	 -2.802853	 1.554979	 0.648059

9 5 3 2 F
