%nprocshared=4
%mem=2GB
#HF/6-31G* nosymm scf=tight opt=ModRedundant

Mol

0 1
H	 -3.420663	 1.227371	 -1.044276
O	 -3.452007	 0.283848	 -0.965577
C	 -3.181085	 -0.079926	 0.364119
C	 -1.765924	 0.277073	 0.805136
H	 -3.327791	 -1.152017	 0.410903
H	 -3.905698	 0.375695	 1.036898
C	 -0.677594	 -0.417312	 -0.014550
H	 -1.637766	 1.358238	 0.744969
H	 -1.659588	 0.017670	 1.857098
C	 0.738335	 -0.034840	 0.421385
H	 -0.814977	 -0.178223	 -1.064632
H	 -0.802730	 -1.495410	 0.071702
C	 1.822265	 -0.738362	 -0.399735
H	 0.853533	 1.043532	 0.342250
H	 0.871597	 -0.279636	 1.474438
C	 1.554485	 -0.786307	 -1.908427
H	 1.954246	 -1.752851	 -0.026790
H	 2.769557	 -0.229555	 -0.233696
C	 0.345666	 -1.632095	 -2.313153
H	 2.438052	 -1.183328	 -2.402364
H	 1.427867	 0.227322	 -2.283563
H	 0.438707	 -2.648761	 -1.940498
H	 0.256241	 -1.684366	 -3.393943
H	 -0.583328	 -1.223005	 -1.930033

17 13 10 7 F
