%nprocshared=4
%mem=2GB
#HF/cc-pVTZ nosymm scf=tight opt=ModRedundant

Mol

0 1
H	 2.614283	 2.028610	 0.296620
O	 3.358864	 1.662087	 -0.142800
C	 3.565468	 0.338079	 0.273842
C	 2.533667	 -0.637565	 -0.272227
H	 4.548038	 0.064914	 -0.086598
H	 3.593945	 0.282242	 1.360360
C	 1.580927	 -0.032388	 -1.300768
H	 3.055653	 -1.483092	 -0.710144
H	 1.959558	 -1.021461	 0.567667
C	 0.539226	 -1.031867	 -1.801503
H	 2.153435	 0.344584	 -2.141678
H	 1.071509	 0.823032	 -0.860272
C	 -0.488293	 -0.459073	 -2.779444
H	 1.046773	 -1.873530	 -2.266503
H	 0.008590	 -1.435925	 -0.943813
C	 0.074648	 -0.037980	 -4.135734
H	 -1.258076	 -1.208291	 -2.942645
H	 -0.987734	 0.389992	 -2.318139
C	 -1.002623	 0.432996	 -5.109428
H	 0.612439	 -0.875159	 -4.575483
H	 0.802451	 0.757556	 -4.007564
C	 -0.443597	 0.857721	 -6.463307
H	 -1.728521	 -0.362552	 -5.253489
H	 -1.546438	 1.263960	 -4.668037
H	 0.079104	 0.038209	 -6.945408
H	 -1.233744	 1.183274	 -7.130233
H	 0.258234	 1.678433	 -6.357395

8 4 3 2 F
