%nprocshared=4
%mem=2GB
#HF/cc-pVTZ nosymm scf=tight opt=ModRedundant

Mol

0 1
O	 1.635185	 -2.985033	 2.378826
C	 1.693919	 -2.146020	 1.546006
C	 2.193176	 -0.738670	 1.752008
O	 1.317782	 -2.342573	 0.292610
C	 2.643875	 -0.457965	 3.180059
H	 2.990276	 -0.580303	 1.035696
H	 1.391349	 -0.069124	 1.456863
C	 3.688182	 -1.444812	 3.703887
H	 1.779259	 -0.456388	 3.834662
H	 3.051349	 0.544629	 3.222247
C	 4.850615	 -1.723282	 2.752252
H	 3.185329	 -2.382783	 3.919560
H	 4.078576	 -1.087596	 4.654292
C	 5.469669	 -0.451563	 2.178415
H	 5.615816	 -2.287745	 3.280192
H	 4.519517	 -2.352413	 1.931213
C	 4.547626	 0.292901	 1.216966
H	 6.394401	 -0.702870	 1.664553
H	 5.746948	 0.212481	 2.993907
C	 5.173736	 1.561132	 0.646569
H	 4.269865	 -0.369293	 0.401449
H	 3.623992	 0.547274	 1.729852
H	 4.493820	 2.064849	 -0.030901
H	 6.081680	 1.336178	 0.096894
H	 5.431594	 2.259485	 1.435886
C	 0.824678	 -3.623490	 -0.043565
H	 -0.139967	 -3.792406	 0.411591
H	 1.544729	 -4.329140	 0.337866
H	 0.731980	 -3.727573	 -1.114467

2 4 26 27 F
