%nprocshared=4
%mem=2GB
#HF/cc-pVTZ nosymm scf=tight opt=ModRedundant

Mol

0 1
H	 -3.941973	 0.934228	 -0.390224
C	 -3.240162	 0.342701	 0.161016
C	 -2.105997	 -0.000418	 -0.398703
H	 -3.485368	 0.047206	 1.162193
O	 -1.842293	 -1.273179	 -0.773354
H	 -1.327809	 0.712521	 -0.601853
C	 -0.582691	 -1.574424	 -1.258918
C	 0.361546	 -2.004323	 -0.155000
H	 -0.129260	 -0.738648	 -1.778198
H	 -0.677084	 -2.401686	 -1.946062
F	 1.533232	 -2.311417	 -0.674545
F	 0.554267	 -1.046899	 0.726875
F	 -0.080808	 -3.056286	 0.490100

6 3 2 1 F
