%nprocshared=4
%mem=2GB
#HF/cc-pVTZ nosymm scf=tight opt=ModRedundant

Mol

0 1
H	 -1.512162	 4.128812	 -0.589845
O	 -0.827201	 3.534489	 -0.834395
C	 -0.916122	 2.357085	 -0.076614
C	 0.202409	 1.426166	 -0.498986
H	 -0.831510	 2.580265	 0.984897
H	 -1.878652	 1.874823	 -0.234063
C	 0.196029	 0.106276	 0.266738
H	 1.148722	 1.937238	 -0.352293
H	 0.110887	 1.240010	 -1.564297
C	 1.330220	 -0.826136	 -0.155230
H	 0.262900	 0.311565	 1.330740
H	 -0.755131	 -0.398404	 0.111255
C	 2.719700	 -0.407669	 0.328325
H	 1.339388	 -0.911200	 -1.239363
H	 1.119001	 -1.821953	 0.224128
C	 3.241564	 0.893452	 -0.276737
H	 3.418299	 -1.204729	 0.093035
H	 2.711776	 -0.323368	 1.411960
H	 3.254204	 0.841071	 -1.360784
H	 2.634460	 1.745075	 0.005842
H	 4.254264	 1.092401	 0.054971

4 7 10 14 F
