%nprocshared=4
%mem=2GB
#HF/cc-pVTZ nosymm scf=tight opt=ModRedundant

Mol

0 1
H	 1.683151	 1.003545	 0.937735
C	 0.813373	 1.105264	 0.305399
O	 0.000000	 0.000000	 0.518769
H	 0.302036	 2.031417	 0.559626
H	 1.139119	 1.166257	 -0.730953
C	 -1.165153	 0.000000	 -0.236961
H	 -1.229451	 0.882440	 -0.870223
H	 -2.002557	 0.000000	 0.445289
H	 -1.229451	 -0.882440	 -0.870223

2 3 6 7 F
