%nprocshared=4
%mem=2GB
#HF/6-31G* nosymm scf=tight opt=ModRedundant

Mol

0 1
O	 3.225979	 0.970355	 -0.599647
C	 2.701189	 0.057885	 -0.047330
C	 1.245376	 -0.013843	 0.345420
O	 3.347903	 -1.046386	 0.304773
C	 1.033027	 -0.513854	 1.772659
H	 0.825844	 0.975261	 0.194235
H	 0.748302	 -0.660173	 -0.373520
C	 -0.441224	 -0.692161	 2.151192
H	 1.510954	 0.170462	 2.467220
H	 1.546222	 -1.462582	 1.886539
C	 -1.252387	 0.605124	 2.215824
H	 -0.482949	 -1.176735	 3.123905
H	 -0.914597	 -1.379528	 1.451582
C	 -2.686031	 0.386702	 2.703632
H	 -0.750326	 1.308250	 2.878671
H	 -1.282916	 1.077118	 1.236405
C	 -3.507621	 1.675529	 2.767234
H	 -2.664228	 -0.073589	 3.689984
H	 -3.185257	 -0.324541	 2.047426
C	 -4.936864	 1.449283	 3.258945
H	 -3.009651	 2.387746	 3.421768
H	 -3.534215	 2.134815	 1.781267
H	 -5.493630	 2.380656	 3.293039
H	 -4.944795	 1.022569	 4.257968
H	 -5.473106	 0.767208	 2.605116
C	 4.728119	 -1.109107	 -0.004993
H	 4.882018	 -1.033965	 -1.071845
H	 5.068212	 -2.067527	 0.355250
H	 5.265056	 -0.311663	 0.488280

6 3 2 1 F
