%nprocshared=4
%mem=2GB
#HF/cc-pVTZ nosymm scf=tight opt=ModRedundant

Mol

0 1
H	 2.867672	 -0.456275	 0.875795
C	 2.403497	 -0.020426	 0.000000
N	 0.989899	 -0.304564	 0.000000
H	 2.867672	 -0.456275	 -0.875795
H	 2.620366	 1.051270	 0.000000
C	 0.579246	 -1.069697	 1.159096
C	 0.555847	 -0.953286	 -1.219970
H	 1.083287	 -2.040418	 1.196334
H	 0.846872	 -0.526515	 2.058017
C	 -0.921123	 -1.289756	 1.132445
H	 0.806304	 -0.324689	 -2.066649
H	 1.058129	 -1.915251	 -1.361674
C	 -0.943920	 -1.176336	 -1.185494
H	 -1.224032	 -1.936996	 1.943588
H	 -1.430716	 -0.334821	 1.244306
O	 -1.319662	 -1.906738	 -0.055681
H	 -1.263308	 -1.741592	 -2.049845
H	 -1.454694	 -0.215532	 -1.193579

6 3 2 5 F
