%nprocshared=1
%mem=2GB
#HF/6-31G* nosymm scf=tight 

Mol

0 1
O	 0.890900	 4.449719	 0.194007
C	 -0.195495	 4.931614	 0.295402
C	 -1.458496	 4.089151	 0.290832
C	 -0.384831	 6.428094	 0.436316
C	 -1.206306	 2.591363	 0.144998
H	 -2.003037	 4.300123	 1.210264
H	 -2.098151	 4.451897	 -0.512697
C	 -2.500612	 1.776173	 0.144844
H	 -0.560765	 2.259102	 0.951849
H	 -0.656195	 2.410957	 -0.773141
C	 -2.259874	 0.272531	 0.000494
H	 -3.048927	 1.964482	 1.066765
H	 -3.143966	 2.115616	 -0.665675
C	 -3.549786	 -0.549746	 -0.000374
H	 -1.617427	 -0.068026	 0.810618
H	 -1.712569	 0.083018	 -0.921210
C	 -4.809590	 0.315458	 -0.000369
H	 -3.560515	 -1.202009	 -0.871156
H	 -3.561123	 -1.202955	 0.869711
H	 -4.844746	 0.956611	 -0.876632
H	 -5.706986	 -0.295590	 -0.001609
H	 -4.845960	 0.954827	 0.877144
H	 -0.902515	 6.659048	 1.362750
H	 0.577895	 6.919959	 0.428489
H	 -0.994075	 6.810958	 -0.377239

9 5 8 12 F
15 11 8 12 F
1 2 3 6 F
9 5 3 6 F
