%nprocshared=4
%mem=2GB
#HF/cc-pVTZ nosymm scf=tight opt=ModRedundant

Mol

0 1
H	 -2.498963	 -0.741158	 -0.729149
O	 -2.346257	 -0.289210	 0.080372
C	 -1.183935	 0.486039	 -0.009831
C	 0.062853	 -0.375310	 0.027457
H	 -1.178881	 1.094526	 -0.908634
H	 -1.184406	 1.155156	 0.838676
O	 0.928086	 0.065260	 -0.966887
H	 -0.202731	 -1.421615	 -0.132565
H	 0.525589	 -0.302676	 1.009380
C	 2.135550	 -0.619820	 -1.029487
H	 1.982405	 -1.677280	 -1.233446
H	 2.717989	 -0.191518	 -1.831988
H	 2.694288	 -0.525715	 -0.101330

8 4 3 5 F
