%nprocshared=4
%mem=2GB
#HF/cc-pVTZ nosymm scf=tight opt=ModRedundant

Mol

0 1
H	 -3.436473	 1.252944	 -1.023892
O	 -3.458596	 0.315260	 -0.960865
C	 -3.176635	 -0.080824	 0.355601
C	 -1.763371	 0.265266	 0.799691
H	 -3.321825	 -1.153438	 0.379502
H	 -3.895468	 0.357385	 1.043382
C	 -0.861159	 0.748622	 -0.331990
H	 -1.813784	 1.024111	 1.579099
H	 -1.329905	 -0.617336	 1.263921
C	 0.542583	 1.122758	 0.136518
H	 -1.322342	 1.601724	 -0.817213
H	 -0.793004	 -0.030917	 -1.087093
C	 1.441974	 1.600890	 -1.001697
H	 0.466095	 1.893490	 0.897447
H	 1.003618	 0.263032	 0.618365
C	 2.883793	 1.911314	 -0.595932
H	 1.001614	 2.483546	 -1.459792
H	 1.459158	 0.836938	 -1.774161
C	 3.039435	 3.102956	 0.345827
H	 3.459579	 2.103022	 -1.496207
H	 3.324754	 1.030018	 -0.137359
H	 2.601852	 3.998363	 -0.084109
H	 4.086728	 3.307588	 0.536991
H	 2.562724	 2.928937	 1.302942

7 4 3 2 F
