%nprocshared=4
%mem=2GB
#HF/cc-pVTZ nosymm scf=tight opt=ModRedundant

Mol

0 1
O	 0.208967	 -0.496922	 0.425616
C	 1.121787	 0.124983	 0.000110
C	 1.476927	 1.536747	 0.390315
O	 1.969101	 -0.353489	 -0.896273
C	 1.463395	 1.779754	 1.892543
H	 2.452547	 1.750876	 -0.033706
H	 0.782047	 2.195186	 -0.120627
C	 2.330248	 0.778983	 2.651049
H	 0.442522	 1.729583	 2.254263
H	 1.804434	 2.788788	 2.095243
C	 2.322116	 1.011999	 4.157876
H	 1.985818	 -0.230294	 2.441364
H	 3.351835	 0.833753	 2.284173
H	 1.318261	 0.929458	 4.560426
H	 2.945021	 0.287828	 4.669972
H	 2.694294	 2.001144	 4.402124
C	 3.226978	 0.281687	 -1.004047
H	 3.107866	 1.319775	 -1.276836
H	 3.762124	 -0.246898	 -1.776112
H	 3.765395	 0.222432	 -0.069799

1 2 4 17 F
