%nprocshared=4
%mem=2GB
#HF/6-31G* nosymm scf=tight opt=ModRedundant

Mol

0 1
O	 1.547285	 0.072393	 -0.332561
C	 2.701189	 0.057885	 -0.047330
C	 3.619453	 1.255953	 -0.032737
O	 3.347903	 -1.046386	 0.304773
C	 2.916515	 2.555280	 -0.419701
H	 4.056776	 1.309696	 0.958753
H	 4.442748	 1.040196	 -0.708999
C	 3.856755	 3.761927	 -0.511618
H	 2.123691	 2.760232	 0.293421
H	 2.427851	 2.412015	 -1.377357
C	 4.478297	 4.198537	 0.818106
H	 3.294036	 4.596819	 -0.922746
H	 4.648983	 3.550469	 -1.228326
C	 5.319488	 5.470392	 0.692479
H	 3.685751	 4.362238	 1.546730
H	 5.102369	 3.403096	 1.219079
C	 5.949840	 5.913188	 2.014114
H	 4.698290	 6.275652	 0.304016
H	 6.105652	 5.310894	 -0.043868
C	 6.785069	 7.186105	 1.880797
H	 5.165700	 6.072043	 2.751361
H	 6.574599	 5.111215	 2.401794
H	 7.218412	 7.474324	 2.833556
H	 6.180236	 8.016665	 1.527890
H	 7.599576	 7.048523	 1.175159
C	 4.728119	 -1.109107	 -0.004993
H	 4.882018	 -1.033965	 -1.071845
H	 5.068212	 -2.067527	 0.355250
H	 5.265056	 -0.311663	 0.488280

1 2 4 26 F
