%nprocshared=4
%mem=2GB
#HF/cc-pVTZ nosymm scf=tight opt=ModRedundant

Mol

0 1
H	 0.150432	 4.202442	 -0.606510
O	 -0.214580	 3.574635	 -1.202769
C	 -0.184951	 2.294728	 -0.636110
C	 1.220793	 1.727888	 -0.616888
H	 -0.591014	 2.294486	 0.370489
H	 -0.818265	 1.665471	 -1.244905
O	 1.172093	 0.457955	 -0.054438
H	 1.876564	 2.378637	 -0.036038
H	 1.612123	 1.691941	 -1.631355
C	 2.395478	 -0.199028	 -0.000366
H	 2.505946	 -0.901710	 -0.823354
H	 3.174616	 0.545641	 -0.071768
H	 2.513730	 -0.742241	 0.934223

4 7 10 13 F
