%nprocshared=4
%mem=2GB
#HF/cc-pVTZ nosymm scf=tight opt=ModRedundant

Mol

0 1
H	 0.673621	 -0.573338	 -1.839598
O	 0.268794	 0.229652	 -2.114869
C	 0.133222	 1.086853	 -1.023790
C	 -0.793473	 0.591216	 0.050087
H	 -0.243719	 2.024369	 -1.415300
H	 1.102400	 1.304381	 -0.578734
C	 -1.534243	 -0.493009	 -0.013340
H	 -0.827131	 1.207372	 0.933528
H	 -1.101195	 -1.466332	 -0.144046
H	 -2.604242	 -0.437780	 0.050785

3 4 7 9 F
