%nprocshared=4
%mem=2GB
#HF/cc-pVTZ nosymm scf=tight opt=ModRedundant

Mol

0 1
H	 0.372786	 -3.063731	 -4.270100
O	 1.311417	 -3.054546	 -4.296892
C	 1.799065	 -1.830421	 -3.814203
C	 1.658666	 -1.673376	 -2.307448
H	 2.845903	 -1.802073	 -4.084955
H	 1.312159	 -1.000761	 -4.323160
C	 2.447181	 -0.503760	 -1.722563
H	 0.605414	 -1.560326	 -2.068623
H	 1.990248	 -2.598860	 -1.842763
C	 3.958950	 -0.710771	 -1.803426
H	 2.157343	 -0.357863	 -0.687329
H	 2.183439	 0.409582	 -2.253159
C	 4.799953	 0.463210	 -1.298710
H	 4.226451	 -1.607772	 -1.250200
H	 4.225800	 -0.903997	 -2.838763
C	 4.706947	 1.734419	 -2.140802
H	 4.485758	 0.696690	 -0.285153
H	 5.840484	 0.154355	 -1.227590
C	 5.483272	 2.905042	 -1.542996
H	 3.661846	 2.016582	 -2.248573
H	 5.076169	 1.545734	 -3.144334
C	 5.395616	 4.174796	 -2.383196
H	 5.110858	 3.109040	 -0.542861
H	 6.526028	 2.621811	 -1.426802
H	 4.366898	 4.502402	 -2.491135
H	 5.954501	 4.985493	 -1.929848
H	 5.795766	 4.014145	 -3.378898

8 4 3 2 F
