%nprocshared=1
%mem=2GB
#HF/6-31G* nosymm scf=tight 

Mol

0 1
H	 1.202242	 4.050276	 -1.950926
N	 0.434283	 3.411052	 -2.022875
C	 0.523157	 2.380321	 -0.998561
H	 0.482422	 3.002601	 -2.937031
C	 -0.697059	 1.466921	 -1.048856
H	 0.559793	 2.876845	 -0.033688
H	 1.431098	 1.776792	 -1.074687
C	 -0.679275	 0.379305	 0.025956
H	 -1.588393	 2.079516	 -0.948432
H	 -0.752364	 1.000856	 -2.032249
C	 -1.903357	 -0.536963	 -0.023547
H	 -0.621010	 0.844381	 1.008890
H	 0.221994	 -0.222713	 -0.079562
C	 -3.225172	 0.228290	 0.028445
H	 -1.867824	 -1.134999	 -0.931459
H	 -1.860449	 -1.239604	 0.805977
H	 -3.313397	 0.915643	 -0.808262
H	 -4.073500	 -0.448134	 -0.008893
H	 -3.306061	 0.809945	 0.942516

6 3 5 9 F
12 8 5 9 F
1 2 3 6 F
