%nprocshared=1
%mem=2GB
#HF/6-31G* nosymm scf=tight opt=ModRedundant

Mol

0 1
O	 -2.702228	 -0.200023	 0.569514
C	 -1.806514	 -0.532911	 1.284578
C	 -0.560982	 -1.191051	 0.717296
C	 -1.849492	 -0.289776	 2.776695
C	 0.379448	 -0.143569	 0.099626
H	 -0.878250	 -1.889382	 -0.049502
H	 -0.038846	 -1.749886	 1.488725
C	 1.631333	 -0.777471	 -0.511575
H	 -0.175034	 0.407518	 -0.651531
H	 0.677432	 0.575597	 0.861041
C	 2.915987	 -0.544314	 0.291766
H	 1.766672	 -0.399098	 -1.523130
H	 1.471257	 -1.849544	 -0.605828
C	 3.373361	 0.914346	 0.347591
H	 3.708709	 -1.142521	 -0.150311
H	 2.780642	 -0.921148	 1.303579
H	 3.506512	 1.320010	 -0.651625
H	 4.322697	 0.999599	 0.867103
H	 2.660624	 1.545032	 0.868198
H	 -1.890953	 -1.241047	 3.300746
H	 -2.720196	 0.298401	 3.031069
H	 -0.949769	 0.219849	 3.109240

3 5 8 12 F
