%nprocshared=4
%mem=2GB
#HF/cc-pVTZ nosymm scf=tight opt=ModRedundant

Mol

0 1
O	 1.816773	 1.332945	 -0.963344
C	 0.781622	 1.719742	 -1.387478
C	 -0.518669	 0.958420	 -1.351787
O	 0.630629	 2.901797	 -1.962250
C	 -0.824290	 0.329213	 -0.000115
H	 -1.301960	 1.647247	 -1.650821
H	 -0.472151	 0.207303	 -2.133516
C	 0.407759	 0.253139	 0.896705
H	 -1.231000	 -0.664135	 -0.152170
H	 -1.603239	 0.900498	 0.491985
C	 1.396013	 -0.827279	 0.467145
H	 0.912304	 1.216805	 0.902533
H	 0.098612	 0.066866	 1.922847
C	 2.627627	 -0.903030	 1.363136
H	 1.706197	 -0.641678	 -0.557304
H	 0.893586	 -1.790454	 0.462536
H	 3.171478	 0.035830	 1.361656
H	 3.307562	 -1.678844	 1.030667
H	 2.352482	 -1.122422	 2.389487
C	 1.774850	 3.725117	 -2.063383
H	 2.168391	 3.953019	 -1.083894
H	 1.449161	 4.628457	 -2.553025
H	 2.542901	 3.240436	 -2.647673

9 5 3 6 F
