%nprocshared=4
%mem=2GB
#HF/cc-pVTZ nosymm scf=tight opt=ModRedundant

Mol

0 1
H	 -0.000342	 -0.223902	 -3.352295
C	 -0.027146	 0.371068	 -2.446756
C	 0.024493	 -0.518541	 -1.216015
H	 -0.932586	 0.964979	 -2.449855
H	 0.819708	 1.049865	 -2.473332
N	 -0.042516	 0.263377	 0.000000
H	 -0.822211	 -1.197105	 -1.225584
H	 0.921114	 -1.142847	 -1.255206
C	 0.024493	 -0.518541	 1.216015
H	 0.682568	 0.950412	 0.000000
C	 -0.967316	 -1.669298	 1.186575
H	 1.031521	 -0.912443	 1.306475
H	 -0.150261	 0.090226	 2.107131
H	 -0.780808	 -2.311329	 0.334770
H	 -0.893793	 -2.263112	 2.090282
H	 -1.987038	 -1.303759	 1.114579

12 9 6 3 F
