%nprocshared=4
%mem=2GB
#HF/cc-pVTZ nosymm scf=tight opt=ModRedundant

Mol

0 1
H	 -2.816458	 -0.841657	 -0.064679
N	 -1.878861	 -0.711874	 0.250184
C	 -1.341419	 0.551458	 -0.220231
H	 -1.333674	 -1.468530	 -0.105118
C	 0.082190	 0.731516	 0.254705
H	 -1.357065	 0.652078	 -1.304747
H	 -1.939897	 1.357530	 0.189797
O	 0.095801	 1.664020	 1.292953
H	 0.479062	 -0.221237	 0.602450
H	 0.701326	 1.078295	 -0.569517
C	 1.361776	 1.971492	 1.774605
H	 1.248443	 2.693955	 2.569960
H	 1.860944	 1.090236	 2.171988
H	 1.989571	 2.401154	 0.997542

8 5 3 6 F
