%nprocshared=4
%mem=2GB
#HF/6-31G* nosymm scf=tight opt=ModRedundant

Mol

0 1
H	 2.591676	 2.013956	 0.335017
O	 3.341076	 1.666752	 -0.126416
C	 3.569581	 0.339145	 0.272707
C	 2.539767	 -0.640285	 -0.279495
H	 4.553106	 0.084646	 -0.100901
H	 3.608576	 0.269204	 1.359154
C	 1.115811	 -0.397273	 0.226630
H	 2.556196	 -0.582511	 -1.364741
H	 2.852081	 -1.648031	 -0.010655
C	 1.050547	 -0.220042	 1.746218
H	 0.484701	 -1.230784	 -0.068878
H	 0.707281	 0.491538	 -0.254472
C	 -0.341463	 0.111061	 2.296691
H	 1.422846	 -1.122240	 2.228172
H	 1.732261	 0.578593	 2.031085
C	 -1.376224	 -1.007676	 2.147775
H	 -0.242527	 0.353390	 3.352771
H	 -0.713645	 1.013335	 1.813764
C	 -2.716640	 -0.671184	 2.804658
H	 -0.981524	 -1.922610	 2.587340
H	 -1.545319	 -1.223475	 1.095568
C	 -3.753398	 -1.783599	 2.651920
H	 -2.558553	 -0.468360	 3.861710
H	 -3.107886	 0.248027	 2.373539
H	 -3.405051	 -2.708733	 3.102482
H	 -4.691105	 -1.516160	 3.129223
H	 -3.961388	 -1.985196	 1.604799

10 7 4 8 F
