%nprocshared=4
%mem=2GB
#HF/6-31G* nosymm scf=tight opt=ModRedundant

Mol

0 1
O	 -1.276010	 1.052711	 -0.768302
C	 -1.204840	 0.067374	 -0.106123
C	 -2.388195	 -0.672128	 0.458071
O	 -0.067104	 -0.527208	 0.221609
H	 -2.388023	 -1.694060	 0.097175
H	 -3.300579	 -0.174919	 0.164318
H	 -2.315377	 -0.706351	 1.539059
C	 0.709063	 0.003084	 1.305252
C	 2.141833	 -0.423945	 1.039913
C	 0.167703	 -0.517184	 2.627710
H	 0.628137	 1.079687	 1.275540
H	 2.482798	 -0.046563	 0.082535
H	 2.796578	 -0.037019	 1.813819
H	 2.224022	 -1.505518	 1.030017
H	 0.765134	 -0.137788	 3.450602
H	 -0.855233	 -0.195764	 2.776925
H	 0.202774	 -1.601720	 2.651386

8 4 2 1 F
