%nprocshared=4
%mem=2GB
#HF/6-31G* nosymm scf=tight opt=ModRedundant

Mol

0 1
H	 -3.205869	 0.706700	 1.838701
O	 -2.348784	 0.984310	 1.548677
C	 -2.026376	 0.340750	 0.341611
C	 -0.673256	 0.843270	 -0.132153
H	 -1.987613	 -0.737564	 0.485390
H	 -2.784026	 0.544187	 -0.414188
C	 0.486613	 -0.083066	 0.235839
H	 -0.715586	 0.970948	 -1.210718
H	 -0.508072	 1.829858	 0.297090
C	 1.840406	 0.433480	 -0.254303
H	 0.300215	 -1.068318	 -0.178947
H	 0.519509	 -0.203625	 1.318070
C	 3.000220	 -0.489290	 0.118523
H	 1.809207	 0.553576	 -1.335192
H	 2.021860	 1.424500	 0.157276
H	 2.864959	 -1.479103	 -0.307933
H	 3.946603	 -0.099227	 -0.243630
H	 3.080049	 -0.602997	 1.196117

2 3 4 8 F
