%nprocshared=4
%mem=2GB
#HF/cc-pVTZ nosymm scf=tight opt=ModRedundant

Mol

0 1
H	 2.009698	 -3.003256	 -1.010292
O	 2.784933	 -2.677348	 -1.428173
C	 2.484624	 -2.221236	 -2.720864
C	 1.706132	 -0.914191	 -2.737205
H	 3.437381	 -2.081084	 -3.213399
H	 1.943976	 -2.984938	 -3.276660
C	 0.302622	 -1.012633	 -2.143642
H	 2.278836	 -0.164325	 -2.199739
H	 1.637419	 -0.579151	 -3.769399
C	 -0.460177	 0.309836	 -2.207281
H	 0.371840	 -1.340519	 -1.111797
H	 -0.261431	 -1.775682	 -2.677390
C	 -1.899828	 0.250938	 -1.693286
H	 0.088810	 1.065642	 -1.650865
H	 -0.477903	 0.648540	 -3.239479
C	 -2.041121	 -0.006551	 -0.194127
H	 -2.384696	 1.194315	 -1.928807
H	 -2.445520	 -0.513195	 -2.242355
C	 -3.489218	 0.042606	 0.286507
H	 -1.458043	 0.731662	 0.352252
H	 -1.620791	 -0.974935	 0.059957
C	 -4.219984	 1.311773	 -0.139038
H	 -4.022855	 -0.824300	 -0.093339
H	 -3.510372	 -0.038577	 1.370031
H	 -4.244251	 1.405725	 -1.219696
H	 -5.244345	 1.313233	 0.215630
H	 -3.732090	 2.196311	 0.257073

20 16 19 22 F
