%nprocshared=4
%mem=2GB
#HF/cc-pVTZ nosymm scf=tight opt=ModRedundant

Mol

0 1
H	 1.616875	 -1.768066	 0.973201
C	 0.730279	 -1.189725	 1.171442
O	 0.462329	 -0.453336	 -0.000137
H	 0.915058	 -0.532191	 2.011516
H	 -0.086759	 -1.860355	 1.405842
C	 -0.590565	 0.341382	 0.000062
O	 -1.693898	 -0.053880	 0.000252
H	 -0.340426	 1.403822	 0.000200

2 3 6 7 F
