%nprocshared=4
%mem=2GB
#HF/6-31G* nosymm scf=tight opt=ModRedundant

Mol

0 1
O	 1.012009	 -3.105512	 -4.316652
C	 0.806176	 -1.945566	 -4.125359
C	 0.545907	 -1.421918	 -2.723803
C	 0.825619	 -0.939100	 -5.254085
C	 1.860773	 -1.272791	 -1.941480
H	 -0.095990	 -2.136230	 -2.219788
H	 0.026522	 -0.468614	 -2.762236
C	 1.631333	 -0.777471	 -0.511575
H	 2.362267	 -2.233970	 -1.936739
H	 2.518879	 -0.577373	 -2.460168
C	 2.915987	 -0.544314	 0.291766
H	 1.001372	 -1.490266	 0.017386
H	 1.071872	 0.154975	 -0.548935
C	 3.373361	 0.914346	 0.347591
H	 3.708709	 -1.142521	 -0.150311
H	 2.780642	 -0.921148	 1.303579
H	 3.506512	 1.320010	 -0.651625
H	 4.322697	 0.999599	 0.867103
H	 2.660624	 1.545032	 0.868198
H	 -0.170900	 -0.528695	 -5.394735
H	 1.150234	 -1.414971	 -6.168938
H	 1.483452	 -0.107986	 -5.016789

12 8 11 15 F
