%nprocshared=4
%mem=2GB
#HF/cc-pVTZ nosymm scf=tight opt=ModRedundant

Mol

0 1
O	 0.623971	 1.347241	 -0.000777
C	 0.485107	 0.171416	 -0.000134
C	 1.606966	 -0.836201	 0.000174
O	 -0.695554	 -0.422406	 0.000602
C	 2.988788	 -0.202529	 -0.000115
H	 1.465110	 -1.474645	 -0.864821
H	 1.465209	 -1.474077	 0.865596
H	 3.131767	 0.419673	 -0.873407
H	 3.750876	 -0.972315	 0.000098
H	 3.131883	 0.420264	 0.872742
C	 -1.569751	 -0.158312	 1.088868
C	 -2.840644	 -0.942798	 0.861052
H	 -1.762449	 0.904181	 1.137049
H	 -1.084244	 -0.447990	 2.010113
H	 -3.317261	 -0.644973	 -0.064426
H	 -3.532034	 -0.763375	 1.675926
H	 -2.635228	 -2.004839	 0.813674

11 4 2 3 F
