%nprocshared=4
%mem=2GB
#HF/cc-pVTZ nosymm scf=tight opt=ModRedundant

Mol

0 1
H	 -0.707171	 -7.987536	 0.783210
O	 -0.374287	 -8.334876	 -0.023247
C	 -1.327438	 -8.192815	 -1.043343
C	 -1.496756	 -6.757826	 -1.519602
H	 -0.977521	 -8.806895	 -1.862149
H	 -2.286784	 -8.596386	 -0.725168
C	 -0.183345	 -6.030012	 -1.797249
H	 -2.109545	 -6.761465	 -2.416058
H	 -2.053851	 -6.216755	 -0.758494
C	 0.627325	 -5.768787	 -0.528623
H	 -0.393219	 -5.087759	 -2.292340
H	 0.416225	 -6.620026	 -2.488398
C	 1.987959	 -5.107488	 -0.755805
H	 0.039587	 -5.156130	 0.150673
H	 0.786571	 -6.715535	 -0.019920
C	 3.009841	 -5.968591	 -1.496077
H	 1.832294	 -4.193141	 -1.321724
H	 2.402280	 -4.801557	 0.202265
C	 3.483501	 -7.168232	 -0.679428
H	 3.868524	 -5.355847	 -1.761930
H	 2.589797	 -6.325909	 -2.431433
C	 4.787405	 -7.768073	 -1.195101
H	 3.610487	 -6.868801	 0.357294
H	 2.710250	 -7.931867	 -0.682378
H	 5.589371	 -7.037552	 -1.174452
H	 5.096164	 -8.614511	 -0.592342
H	 4.682460	 -8.112344	 -2.218729

20 16 19 22 F
