%nprocshared=1
%mem=2GB
#HF/6-31G* nosymm scf=tight opt=ModRedundant

Mol

0 1
H	 -3.261111	 -0.295142	 1.469456
C	 -3.306842	 -0.277400	 0.373456
C	 -2.660244	 0.921717	 -0.272021
O	 -3.838538	 -1.161155	 -0.216482
C	 -2.886560	 0.966836	 -1.789585
H	 -3.034994	 1.815275	 0.213597
H	 -1.591626	 0.855718	 -0.071135
C	 -4.348101	 1.197240	 -2.182154
H	 -2.272023	 1.759708	 -2.205499
H	 -2.528155	 0.040538	 -2.235986
C	 -4.556930	 1.251360	 -3.696841
H	 -4.694684	 2.126296	 -1.734290
H	 -4.971525	 0.410117	 -1.762252
C	 -6.017057	 1.497936	 -4.085658
H	 -3.924309	 2.031965	 -4.111786
H	 -4.220182	 0.315501	 -4.140859
C	 -6.289266	 1.478118	 -5.594161
H	 -6.342945	 2.452236	 -3.674803
H	 -6.635908	 0.737817	 -3.613475
C	 -5.629185	 2.616299	 -6.374198
H	 -7.364164	 1.527667	 -5.749364
H	 -5.967658	 0.523594	 -6.005710
H	 -5.920235	 3.583880	 -5.973767
H	 -4.546414	 2.556888	 -6.341777
H	 -5.924827	 2.589280	 -7.418641

6 3 2 4 F
