%nprocshared=4
%mem=2GB
#HF/cc-pVTZ nosymm scf=tight opt=ModRedundant

Mol

0 1
O	 -0.427360	 -1.392182	 -0.665010
C	 0.595354	 -1.297218	 -0.076775
C	 1.246364	 -0.005813	 0.348416
O	 1.317782	 -2.342573	 0.292610
C	 0.453207	 1.232821	 -0.049003
H	 1.394842	 -0.066917	 1.419758
H	 2.239873	 0.009843	 -0.088647
C	 -0.998367	 1.217982	 0.432195
H	 0.481498	 1.345443	 -1.127236
H	 0.951413	 2.105557	 0.354893
C	 -1.307831	 2.170622	 1.585934
H	 -1.237991	 0.206173	 0.745226
H	 -1.658694	 1.438348	 -0.403680
C	 -0.772573	 3.581253	 1.354838
H	 -2.384657	 2.215308	 1.731952
H	 -0.890277	 1.785334	 2.511535
C	 0.750984	 3.664720	 1.378930
H	 -1.179219	 4.247821	 2.111585
H	 -1.135659	 3.950972	 0.398626
C	 1.277971	 5.077258	 1.149155
H	 1.115257	 3.295811	 2.333882
H	 1.158931	 3.001146	 0.621232
H	 2.361429	 5.101235	 1.172147
H	 0.916050	 5.758783	 1.911813
H	 0.959202	 5.462093	 0.186089
C	 0.824678	 -3.623490	 -0.043565
H	 -0.139967	 -3.792406	 0.411591
H	 1.544729	 -4.329140	 0.337866
H	 0.731980	 -3.727573	 -1.114467

11 8 5 9 F
