%nprocshared=4
%mem=2GB
#HF/cc-pVTZ nosymm scf=tight opt=ModRedundant

Mol

0 1
O	 0.037049	 -1.418168	 -1.247195
C	 0.842981	 -1.311137	 -0.386962
C	 1.460650	 -0.018058	 0.080756
O	 1.317782	 -2.342573	 0.292610
C	 0.945793	 1.205413	 -0.667104
H	 1.277454	 0.050045	 1.146285
H	 2.535738	 -0.119492	 -0.029824
C	 -0.577434	 1.341344	 -0.655279
H	 1.303958	 1.176606	 -1.690314
H	 1.383922	 2.090694	 -0.222885
C	 -1.233603	 1.154423	 0.711802
H	 -0.985729	 0.602979	 -1.338855
H	 -0.857017	 2.311907	 -1.059162
C	 -0.556005	 1.963612	 1.814464
H	 -2.280217	 1.442996	 0.647036
H	 -1.223324	 0.105016	 0.991399
C	 0.847778	 1.471142	 2.154523
H	 -1.171660	 1.935324	 2.710292
H	 -0.505488	 3.007749	 1.514313
C	 1.517367	 2.283313	 3.258066
H	 0.798888	 0.427997	 2.454822
H	 1.465197	 1.501429	 1.260804
H	 2.511030	 1.908146	 3.474557
H	 0.941810	 2.244036	 4.176924
H	 1.612431	 3.326087	 2.973828
C	 0.824678	 -3.623490	 -0.043565
H	 -0.139967	 -3.792406	 0.411591
H	 1.544729	 -4.329140	 0.337866
H	 0.731980	 -3.727573	 -1.114467

2 4 26 27 F
