%nprocshared=4
%mem=2GB
#HF/cc-pVTZ nosymm scf=tight opt=ModRedundant

Mol

0 1
O	 2.868453	 1.353349	 -0.000734
C	 2.841259	 0.166180	 -0.000295
C	 1.542794	 -0.614730	 -0.000853
C	 4.113372	 -0.651103	 0.000743
C	 0.288398	 0.247429	 0.000314
H	 1.557171	 -1.273139	 -0.866508
H	 1.557484	 -1.274998	 0.863344
C	 -0.993089	 -0.581367	 -0.000217
H	 0.305153	 0.900562	 -0.864701
H	 0.305567	 0.898805	 0.866656
C	 -2.258482	 0.271340	 0.000669
H	 -1.002280	 -1.233920	 -0.870484
H	 -1.002061	 -1.235367	 0.868958
C	 -2.440123	 1.087177	 1.277443
H	 -3.123939	 -0.371598	 -0.139790
H	 -2.238506	 0.943158	 -0.853958
C	 -3.706733	 1.936558	 1.270899
H	 -2.461394	 0.416363	 2.132132
H	 -1.576081	 1.731072	 1.417975
H	 -4.591962	 1.318081	 1.166502
H	 -3.805489	 2.502276	 2.190264
H	 -3.699992	 2.642667	 0.447244
H	 4.145311	 -1.294584	 -0.871587
H	 4.970080	 0.004978	 -0.000091
H	 4.145223	 -1.291980	 0.874988

15 11 8 12 F
