%nprocshared=4
%mem=2GB
#HF/cc-pVTZ nosymm scf=tight opt=ModRedundant

Mol

0 1
O	 -0.988175	 -1.402891	 0.050086
C	 -0.675048	 -0.248293	 -0.009686
C	 -1.742492	 0.826599	 -0.011538
N	 0.622280	 0.144970	 -0.099307
H	 -1.692153	 1.431066	 -0.908439
H	 -2.698310	 0.331559	 0.031353
H	 -1.642148	 1.483784	 0.843455
C	 1.291112	 0.625010	 1.091564
C	 1.291871	 0.438701	 -1.343946
H	 2.316241	 0.275275	 1.095890
H	 0.784461	 0.255339	 1.964392
H	 1.301151	 1.711376	 1.128157
H	 2.339204	 0.180540	 -1.254042
H	 0.884798	 -0.133245	 -2.160073
H	 1.229989	 1.494237	 -1.599012

8 4 2 3 F
