%nprocshared=4
%mem=2GB
#HF/cc-pVTZ nosymm scf=tight opt=ModRedundant

Mol

0 1
O	 2.868453	 1.353349	 -0.000734
C	 2.841259	 0.166180	 -0.000295
C	 1.542794	 -0.614730	 -0.000853
C	 4.113372	 -0.651103	 0.000743
C	 0.288398	 0.247429	 0.000314
H	 1.557171	 -1.273139	 -0.866508
H	 1.557484	 -1.274998	 0.863344
C	 -0.768544	 -0.255992	 0.979371
H	 -0.122822	 0.278067	 -1.002220
H	 0.559146	 1.268593	 0.243324
C	 -2.031811	 0.599795	 0.990081
H	 -1.033423	 -1.281400	 0.731071
H	 -0.348492	 -0.285965	 1.982326
C	 -3.093922	 0.102548	 1.966504
H	 -2.452564	 0.630165	 -0.011996
H	 -1.768175	 1.624825	 1.238954
C	 -4.353244	 0.962707	 1.971463
H	 -3.358923	 -0.921583	 1.717766
H	 -2.674620	 0.073081	 2.968619
H	 -4.816065	 0.984361	 0.990459
H	 -5.086019	 0.582888	 2.674172
H	 -4.126756	 1.986288	 2.250802
H	 4.145311	 -1.294584	 -0.871587
H	 4.970080	 0.004978	 -0.000091
H	 4.145223	 -1.291980	 0.874988

9 5 3 6 F
