%nprocshared=4
%mem=2GB
#HF/cc-pVTZ nosymm scf=tight opt=ModRedundant

Mol

0 1
H	 -0.734880	 -5.346017	 -4.441742
O	 0.149293	 -5.225820	 -4.734351
C	 0.376115	 -3.878349	 -5.053958
C	 0.463305	 -2.972271	 -3.834898
H	 1.315674	 -3.855896	 -5.589407
H	 -0.391418	 -3.515473	 -5.734887
C	 1.365296	 -3.502413	 -2.722599
H	 0.812943	 -1.995309	 -4.154988
H	 -0.543455	 -2.835944	 -3.447282
C	 0.802950	 -4.755020	 -2.052090
H	 1.508960	 -2.727221	 -1.977320
H	 2.348150	 -3.728246	 -3.132822
C	 1.701674	 -5.372571	 -0.979160
H	 -0.166489	 -4.522780	 -1.617946
H	 0.619072	 -5.503317	 -2.818060
C	 3.009841	 -5.968591	 -1.496077
H	 1.937442	 -4.603965	 -0.248280
H	 1.145279	 -6.137719	 -0.442385
C	 3.483501	 -7.168232	 -0.679428
H	 3.781425	 -5.201776	 -1.485084
H	 2.898094	 -6.272898	 -2.532375
C	 4.787405	 -7.768073	 -1.195101
H	 3.610487	 -6.868801	 0.357294
H	 2.710250	 -7.931867	 -0.682378
H	 5.589371	 -7.037552	 -1.174452
H	 5.096164	 -8.614511	 -0.592342
H	 4.682460	 -8.112344	 -2.218729

10 13 16 20 F
