%nprocshared=4
%mem=2GB
#HF/cc-pVTZ nosymm scf=tight opt=ModRedundant

Mol

0 1
O	 0.130850	 1.174101	 0.432860
C	 0.029490	 0.077183	 0.000078
C	 -1.232113	 -0.748027	 0.000015
O	 1.035230	 -0.580662	 -0.552153
C	 -2.501422	 0.088592	 -0.000052
H	 -1.188777	 -1.400384	 -0.865133
H	 -1.188857	 -1.400312	 0.865225
H	 -2.548170	 0.725504	 -0.873205
H	 -3.371613	 -0.556398	 -0.000040
H	 -2.548215	 0.725571	 0.873047
C	 2.283603	 0.078764	 -0.618211
H	 2.205764	 0.984827	 -1.200643
H	 2.960642	 -0.612248	 -1.093548
H	 2.637072	 0.325608	 0.371926

4 2 3 6 F
