%nprocshared=1
%mem=2GB
#HF/6-31G* nosymm scf=tight 

Mol

0 1
O	 1.761872	 1.193883	 0.499756
C	 1.705091	 0.115954	 0.001797
C	 0.503426	 -0.463312	 -0.704121
O	 2.721346	 -0.737485	 -0.000216
C	 -0.695667	 0.479554	 -0.732805
H	 0.816187	 -0.733276	 -1.709116
H	 0.256688	 -1.399214	 -0.210232
C	 -1.897663	 -0.131876	 -1.454207
H	 -0.408760	 1.408317	 -1.215786
H	 -0.969583	 0.740830	 0.284552
C	 -3.109369	 0.800923	 -1.493112
H	 -1.615577	 -0.395002	 -2.472631
H	 -2.179023	 -1.064074	 -0.966636
C	 -4.310444	 0.188982	 -2.212973
H	 -2.830648	 1.731656	 -1.982185
H	 -3.392902	 1.063972	 -0.476475
H	 -4.068312	 -0.053369	 -3.243920
H	 -5.152815	 0.873633	 -2.223671
H	 -4.634761	 -0.726679	 -1.726460
C	 4.024888	 -0.184556	 -0.001949
H	 4.179030	 0.422472	 -0.882452
H	 4.701782	 -1.024608	 -0.003642
H	 4.181981	 0.421185	 0.878906

15 11 8 12 F
9 5 8 12 F
1 2 3 6 F
9 5 3 6 F
