%nprocshared=1
%mem=2GB
#HF/6-31G* nosymm scf=tight 

Mol

0 1
H	 -3.261111	 -0.295142	 1.469456
C	 -3.306842	 -0.277400	 0.373456
C	 -2.660244	 0.921717	 -0.272021
O	 -3.838538	 -1.161155	 -0.216482
C	 -3.416311	 1.397421	 -1.520350
H	 -2.580694	 1.708101	 0.469586
H	 -1.650650	 0.626787	 -0.555552
C	 -4.804678	 1.964680	 -1.213835
H	 -2.818157	 2.155975	 -2.016427
H	 -3.504292	 0.572460	 -2.225655
C	 -5.541758	 2.445249	 -2.465466
H	 -4.704905	 2.789891	 -0.511753
H	 -5.407766	 1.212050	 -0.709482
C	 -6.923265	 3.026670	 -2.153477
H	 -4.930323	 3.188843	 -2.970388
H	 -5.650623	 1.614224	 -3.161118
C	 -7.733697	 3.446003	 -3.385317
H	 -6.812309	 3.882025	 -1.488834
H	 -7.495757	 2.285348	 -1.599935
C	 -7.141127	 4.619909	 -4.166613
H	 -8.736114	 3.714469	 -3.061227
H	 -7.848781	 2.591336	 -4.048809
H	 -6.999580	 5.484736	 -3.523724
H	 -6.180070	 4.372675	 -4.605043
H	 -7.801155	 4.915645	 -4.976488

6 3 5 8 F
3 5 8 12 F
12 8 11 14 F
8 11 14 18 F
20 17 14 18 F
