%nprocshared=4
%mem=2GB
#HF/cc-pVTZ nosymm scf=tight opt=ModRedundant

Mol

0 1
H	 -2.644180	 -0.653737	 1.272255
C	 -2.092774	 -0.380414	 0.391915
O	 -0.808934	 -0.154049	 0.752536
F	 -2.163230	 -1.351640	 -0.507133
F	 -2.627232	 0.691260	 -0.169301
C	 -0.550237	 0.828116	 1.684055
C	 0.650589	 1.627665	 1.184039
Cl	 -0.195442	 0.126852	 3.273988
H	 -1.375566	 1.506930	 1.809309
F	 0.940471	 2.590887	 2.021413
F	 0.349655	 2.172932	 0.029293
F	 1.708611	 0.881818	 1.021087

6 3 2 4 F
