%nprocshared=1
%mem=2GB
#HF/6-31G* nosymm scf=tight opt=ModRedundant

Mol

0 1
H	 -3.420663	 1.227371	 -1.044276
O	 -3.452007	 0.283848	 -0.965577
C	 -3.181085	 -0.079926	 0.364119
C	 -1.765924	 0.277073	 0.805136
H	 -3.327791	 -1.152017	 0.410903
H	 -3.905698	 0.375695	 1.036898
C	 -0.677594	 -0.417312	 -0.014550
H	 -1.637766	 1.358238	 0.744969
H	 -1.659588	 0.017670	 1.857098
C	 0.738335	 -0.034840	 0.421385
H	 -0.814977	 -0.178223	 -1.064632
H	 -0.802730	 -1.495410	 0.071702
C	 1.688596	 -1.234326	 0.469562
H	 1.126255	 0.719360	 -0.259144
H	 0.700808	 0.431813	 1.404966
C	 3.096647	 -0.917014	 0.986149
H	 1.762069	 -1.674985	 -0.523472
H	 1.251283	 -1.999074	 1.108103
C	 3.911120	 0.011195	 0.083116
H	 3.638975	 -1.852084	 1.103685
H	 3.025091	 -0.481620	 1.980892
H	 3.988857	 -0.392890	 -0.922772
H	 4.919125	 0.135462	 0.466941
H	 3.467783	 0.998723	 0.009613

13 10 7 11 F
