%nprocshared=4
%mem=2GB
#HF/cc-pVTZ nosymm scf=tight opt=ModRedundant

Mol

0 1
H	 5.269878	 0.195679	 1.068175
C	 4.673900	 -0.208485	 0.258034
C	 3.190199	 -0.204714	 0.610086
H	 4.865136	 0.391893	 -0.624684
H	 5.027838	 -1.214511	 0.056939
C	 2.319208	 -0.778154	 -0.505491
H	 2.876954	 0.809861	 0.827925
H	 3.035335	 -0.782733	 1.518235
C	 1.372936	 -1.881760	 -0.043419
H	 1.739417	 0.017025	 -0.957555
H	 2.960763	 -1.182912	 -1.282898
C	 0.208164	 -1.403895	 0.807130
H	 0.933822	 -2.376053	 -0.906332
H	 1.911665	 -2.655426	 0.495775
C	 -0.536073	 -2.444244	 1.621474
O	 -0.126448	 -0.263255	 0.822949
C	 -1.240957	 -3.505836	 0.770283
H	 -1.257157	 -1.914569	 2.229193
H	 0.172187	 -2.929007	 2.288233
C	 -2.058222	 -4.480165	 1.614338
H	 -1.895295	 -3.013543	 0.056081
H	 -0.512330	 -4.063695	 0.190717
C	 -2.771161	 -5.537790	 0.778711
H	 -2.789056	 -3.924521	 2.194178
H	 -1.404522	 -4.967135	 2.332746
H	 -3.455847	 -5.081663	 0.071721
H	 -2.062790	 -6.134770	 0.214011
H	 -3.343856	 -6.210700	 1.406026

10 6 3 2 F
