%nprocshared=4
%mem=2GB
#HF/cc-pVTZ nosymm scf=tight opt=ModRedundant

Mol

0 1
O	 0.887420	 1.823864	 0.485294
C	 0.164818	 1.636164	 1.403813
C	 -1.104136	 0.823819	 1.367559
O	 0.385614	 2.129036	 2.611581
C	 -1.413045	 0.229353	 0.001137
H	 -1.010433	 0.048833	 2.121281
H	 -1.907970	 1.469286	 1.706214
C	 -2.702562	 -0.586401	 0.000228
H	 -0.583855	 -0.394117	 -0.313935
H	 -1.482891	 1.027588	 -0.729265
C	 -3.953810	 0.284959	 -0.000782
H	 -2.717793	 -1.238567	 -0.869075
H	 -2.719108	 -1.238472	 0.869576
H	 -3.983727	 0.924403	 -0.876454
H	 -4.852989	 -0.320147	 -0.001515
H	 -3.985140	 0.924399	 0.874841
C	 1.546810	 2.914713	 2.789500
H	 2.433892	 2.339361	 2.569767
H	 1.546067	 3.216851	 3.824188
H	 1.521920	 3.782807	 2.147615

9 5 8 12 F
