%nprocshared=4
%mem=2GB
#HF/cc-pVTZ nosymm scf=tight opt=ModRedundant

Mol

0 1
H	 -2.338114	 1.147605	 3.777606
O	 -1.638141	 0.589257	 3.493917
C	 -1.340866	 0.835032	 2.144977
C	 -0.209998	 -0.082209	 1.725539
H	 -2.215143	 0.653548	 1.523304
H	 -1.047814	 1.873168	 2.002771
C	 0.196029	 0.106276	 0.266738
H	 -0.518669	 -1.108708	 1.896544
H	 0.639577	 0.099959	 2.375889
C	 1.330220	 -0.826136	 -0.155230
H	 -0.670187	 -0.054840	 -0.367633
H	 0.505436	 1.136948	 0.106853
C	 2.719700	 -0.407669	 0.328325
H	 1.339388	 -0.911200	 -1.239363
H	 1.119001	 -1.821953	 0.224128
C	 3.241564	 0.893452	 -0.276737
H	 3.418299	 -1.204729	 0.093035
H	 2.711776	 -0.323368	 1.411960
H	 3.254204	 0.841071	 -1.360784
H	 2.634460	 1.745075	 0.005842
H	 4.254264	 1.092401	 0.054971

4 7 10 14 F
