%nprocshared=4
%mem=2GB
#HF/cc-pVTZ nosymm scf=tight opt=ModRedundant

Mol

0 1
H	 4.350750	 -0.135346	 -1.839792
C	 3.556900	 -0.664599	 -1.326176
C	 2.267697	 0.149402	 -1.322720
H	 3.417518	 -1.616581	 -1.827517
H	 3.897032	 -0.870253	 -0.316705
C	 1.124569	 -0.557498	 -0.609616
H	 1.960912	 0.366292	 -2.339876
H	 2.449046	 1.108530	 -0.843384
N	 -0.089360	 0.229224	 -0.643975
H	 0.925810	 -1.504468	 -1.102477
H	 1.430168	 -0.800378	 0.412491
C	 -1.215959	 -0.382435	 0.027143
H	 0.083746	 1.133086	 -0.256178
C	 -2.451944	 0.502410	 -0.038737
H	 -1.426122	 -1.328554	 -0.462619
H	 -0.995048	 -0.618988	 1.072284
C	 -3.752217	 -0.292550	 0.005776
H	 -2.407325	 1.093801	 -0.946480
H	 -2.431979	 1.206234	 0.790023
H	 -3.817783	 -0.982946	 -0.828547
H	 -4.612613	 0.364348	 -0.042306
H	 -3.830160	 -0.871666	 0.919868

15 12 14 18 F
