%nprocshared=4
%mem=2GB
#HF/cc-pVTZ nosymm scf=tight opt=ModRedundant

Mol

0 1
O	 1.847685	 1.294399	 -0.000190
C	 1.704209	 0.119472	 -0.000093
C	 0.380337	 -0.600947	 -0.000234
O	 2.715427	 -0.733672	 0.000025
C	 -0.824290	 0.329213	 -0.000115
H	 0.371455	 -1.255476	 -0.865660
H	 0.371410	 -1.255787	 0.864952
C	 -2.004038	 -0.248877	 0.775788
H	 -1.119935	 0.531084	 -1.023402
H	 -0.537644	 1.284980	 0.423716
C	 -3.221947	 0.670378	 0.787538
H	 -2.284893	 -1.208423	 0.347253
H	 -1.699944	 -0.452010	 1.800240
C	 -4.401236	 0.092448	 1.562579
H	 -3.527127	 0.873163	 -0.235154
H	 -2.942998	 1.628520	 1.216853
H	 -4.726144	 -0.850659	 1.135710
H	 -5.247842	 0.769099	 1.550916
H	 -4.137524	 -0.088962	 2.599295
C	 4.020999	 -0.192556	 0.000019
H	 4.182809	 0.412891	 -0.879449
H	 4.692590	 -1.035653	 0.000152
H	 4.182726	 0.413087	 0.879368

9 5 3 6 F
