%nprocshared=4
%mem=2GB
#HF/cc-pVTZ nosymm scf=tight opt=ModRedundant

Mol

0 1
H	 2.692212	 1.976643	 -0.658321
C	 2.216330	 1.081096	 -0.273202
C	 0.708458	 1.160808	 -0.469345
H	 2.453310	 0.991213	 0.779738
H	 2.652656	 0.232949	 -0.786037
N	 0.000297	 0.000045	 0.046090
H	 0.349450	 2.038375	 0.050373
H	 0.479352	 1.320841	 -1.526619
C	 -1.359159	 0.315706	 0.454404
C	 0.057412	 -1.133635	 -0.862773
C	 -2.416729	 -0.286720	 -0.460525
H	 -1.478729	 1.390261	 0.442008
H	 -1.539692	 0.003361	 1.486761
C	 -0.043042	 -2.477595	 -0.154170
H	 1.001384	 -1.102488	 -1.389087
H	 -0.718774	 -1.059282	 -1.629533
H	 -2.285276	 0.073129	 -1.473515
H	 -2.371743	 -1.368476	 -0.483209
H	 -3.408658	 -0.007405	 -0.121593
H	 0.764712	 -2.586866	 0.558922
H	 -0.977401	 -2.590202	 0.381620
H	 0.020980	 -3.286576	 -0.874075

3 6 9 11 F
