%nprocshared=4
%mem=2GB
#HF/cc-pVTZ nosymm scf=tight opt=ModRedundant

Mol

0 1
O	 2.763800	 1.514919	 0.381889
C	 2.516962	 0.666856	 1.175595
C	 1.229550	 -0.131120	 1.135110
C	 3.481137	 0.324994	 2.289022
C	 0.288398	 0.247429	 0.000314
H	 1.498401	 -1.183515	 1.078083
H	 0.739463	 -0.010964	 2.098636
C	 -0.993089	 -0.581367	 -0.000217
H	 0.805140	 0.127532	 -0.945052
H	 0.045650	 1.301195	 0.076363
C	 -2.258482	 0.271340	 0.000669
H	 -1.002280	 -1.233920	 -0.870484
H	 -1.002061	 -1.235367	 0.868958
C	 -3.544441	 -0.550271	 -0.000253
H	 -2.250545	 0.925250	 -0.867923
H	 -2.250598	 0.923423	 0.870642
C	 -4.804551	 0.308747	 0.000556
H	 -3.553737	 -1.201524	 -0.870151
H	 -3.553831	 -1.203282	 0.868313
H	 -4.842050	 0.949078	 -0.874436
H	 -5.698404	 -0.304480	 -0.000254
H	 -4.842277	 0.947103	 0.876982
H	 3.771151	 -0.718041	 2.225644
H	 4.357506	 0.950719	 2.219473
H	 3.005362	 0.468953	 3.252846

9 5 8 12 F
