%nprocshared=4
%mem=2GB
#HF/cc-pVTZ nosymm scf=tight opt=ModRedundant

Mol

0 1
H	 -2.035430	 -2.864065	 -0.894289
C	 -2.587774	 -1.916421	 -0.955711
C	 -2.506313	 -1.054635	 0.274972
O	 -3.193339	 -1.647202	 -1.934547
C	 -1.065695	 -0.813966	 0.735812
H	 -3.023244	 -0.124244	 0.078783
H	 -3.048884	 -1.579861	 1.057952
C	 -0.247837	 0.040196	 -0.230469
H	 -1.092417	 -0.333268	 1.707694
H	 -0.571346	 -1.770661	 0.885968
C	 1.181757	 0.280428	 0.247371
H	 -0.747754	 0.995014	 -0.370150
H	 -0.223910	 -0.431859	 -1.209253
C	 2.151032	 -0.811012	 -0.202643
H	 1.515939	 1.247397	 -0.115449
H	 1.191514	 0.341223	 1.333422
C	 3.580021	 -0.656538	 0.320835
H	 2.170545	 -0.847575	 -1.289412
H	 1.766632	 -1.772905	 0.124928
C	 4.327657	 0.562694	 -0.213579
H	 4.138806	 -1.549270	 0.057813
H	 3.561991	 -0.620783	 1.406976
H	 4.355973	 0.557257	 -1.298551
H	 3.867136	 1.491650	 0.100501
H	 5.351524	 0.571613	 0.142204

12 8 11 14 F
