%nprocshared=4
%mem=2GB
#HF/cc-pVTZ nosymm scf=tight opt=ModRedundant

Mol

0 1
H	 -1.702462	 1.931916	 0.190947
C	 -2.074299	 0.970630	 0.480732
C	 -2.105997	 -0.000418	 -0.398703
H	 -2.410742	 0.827727	 1.488792
O	 -1.857689	 0.207286	 -1.712105
H	 -2.319124	 -1.017151	 -0.123099
C	 -0.679850	 -0.279327	 -2.249714
C	 -0.843806	 -1.683548	 -2.794062
H	 0.128468	 -0.294093	 -1.528481
H	 -0.399105	 0.358048	 -3.074562
F	 0.294611	 -2.084753	 -3.323326
F	 -1.169748	 -2.540975	 -1.850618
F	 -1.764778	 -1.746965	 -3.724786

6 3 5 7 F
