%nprocshared=4
%mem=2GB
#HF/cc-pVTZ nosymm scf=tight opt=ModRedundant

Mol

0 1
H	 -2.849882	 4.447132	 -3.087856
C	 -3.284147	 4.650099	 -2.099371
C	 -2.767713	 3.776084	 -0.988838
O	 -4.100397	 5.495920	 -1.974347
C	 -3.886879	 3.216522	 -0.105643
H	 -2.168815	 2.985840	 -1.422624
H	 -2.112251	 4.398416	 -0.383547
C	 -4.789956	 2.214817	 -0.822038
H	 -3.436206	 2.741351	 0.758907
H	 -4.485933	 4.038000	 0.279717
C	 -5.641798	 2.853761	 -1.915610
H	 -5.437679	 1.736153	 -0.092352
H	 -4.187663	 1.420448	 -1.255222
C	 -6.900381	 3.527547	 -1.372262
H	 -5.037082	 3.575553	 -2.455684
H	 -5.927719	 2.092630	 -2.638262
C	 -7.827821	 4.111512	 -2.439380
H	 -6.614724	 4.314215	 -0.677756
H	 -7.459838	 2.800038	 -0.790848
C	 -7.244121	 5.287623	 -3.218572
H	 -8.743922	 4.435874	 -1.955707
H	 -8.114795	 3.326049	 -3.133643
H	 -6.941812	 6.086551	 -2.549005
H	 -6.377675	 4.999038	 -3.801388
H	 -7.976863	 5.694192	 -3.906144

12 8 11 14 F
