%nprocshared=4
%mem=2GB
#HF/cc-pVTZ nosymm scf=tight opt=ModRedundant

Mol

0 1
H	 -1.716243	 0.173597	 -3.376396
C	 -2.347865	 -0.176156	 -2.548379
C	 -1.780474	 -1.325522	 -1.760397
O	 -3.391154	 0.339706	 -2.341636
C	 -0.349988	 -1.065350	 -1.279047
H	 -2.446715	 -1.539223	 -0.934692
H	 -1.782998	 -2.187654	 -2.423741
C	 -0.247837	 0.040196	 -0.230469
H	 0.047195	 -1.987944	 -0.869896
H	 0.277509	 -0.818916	 -2.132107
C	 1.181757	 0.280428	 0.247371
H	 -0.874618	 -0.217702	 0.619085
H	 -0.652026	 0.966163	 -0.631272
C	 2.151032	 -0.811012	 -0.202643
H	 1.515939	 1.247397	 -0.115449
H	 1.191514	 0.341223	 1.333422
C	 3.580021	 -0.656538	 0.320835
H	 2.170545	 -0.847575	 -1.289412
H	 1.766632	 -1.772905	 0.124928
C	 4.327657	 0.562694	 -0.213579
H	 4.138806	 -1.549270	 0.057813
H	 3.561991	 -0.620783	 1.406976
H	 4.355973	 0.557257	 -1.298551
H	 3.867136	 1.491650	 0.100501
H	 5.351524	 0.571613	 0.142204

12 8 11 14 F
