%nprocshared=4
%mem=2GB
#HF/cc-pVTZ nosymm scf=tight 
prop=(read,field)

Mol

0 1
H	 0.000068	 2.878690	 0.000017
C	 0.000050	 1.804749	 0.000009
C	 1.189632	 1.108141	 -0.000035
C	 -1.189576	 1.108200	 0.000033
H	 2.131056	 1.620511	 -0.000056
C	 1.142336	 -0.276760	 -0.000049
H	 -2.130973	 1.620623	 0.000060
C	 -1.142370	 -0.276690	 0.000010
N	 -0.000021	 -0.938351	 -0.000029
C	 2.395749	 -1.108491	 0.000006
C	 -2.395785	 -1.108346	 0.000035
H	 2.414407	 -1.749479	 -0.872551
H	 3.285021	 -0.492810	 -0.000702
H	 2.415079	 -1.748345	 0.873391
H	 -2.414902	 -1.748744	 -0.872963
H	 -3.285059	 -0.492643	 0.000073
H	 -2.414848	 -1.748773	 0.873013

@grid.dat /N
