%nprocshared=4
%mem=2GB
#HF/cc-pVTZ nosymm scf=tight opt=ModRedundant

Mol

0 1
O	 1.371313	 1.045657	 0.700935
C	 1.121787	 0.124983	 0.000110
C	 -0.170912	 -0.649867	 -0.000147
O	 1.969101	 -0.353489	 -0.896273
C	 -1.413045	 0.229353	 0.001137
H	 -0.152877	 -1.303435	 -0.866175
H	 -0.152278	 -1.305116	 0.864586
C	 -2.568196	 -0.397706	 0.776207
H	 -1.717819	 0.420149	 -1.021727
H	 -1.167256	 1.195942	 0.426388
C	 -3.819057	 0.474190	 0.781998
H	 -2.807678	 -1.367331	 0.347585
H	 -2.256806	 -0.586707	 1.800195
H	 -4.175375	 0.652699	 -0.226841
H	 -4.621738	 0.004598	 1.338651
H	 -3.620574	 1.438918	 1.236406
C	 3.226978	 0.281687	 -1.004047
H	 3.107866	 1.319775	 -1.276836
H	 3.762124	 -0.246898	 -1.776112
H	 3.765395	 0.222432	 -0.069799

9 5 3 6 F
