%nprocshared=4
%mem=2GB
#HF/cc-pVTZ nosymm scf=tight opt=ModRedundant

Mol

0 1
H	 -0.490026	 -1.644034	 -0.002752
N	 -0.625934	 -0.663929	 -0.000707
C	 -1.978635	 -0.158664	 0.001017
C	 0.468496	 0.129037	 0.002276
H	 -2.519057	 -0.493535	 -0.876362
H	 -1.938890	 0.917202	 -0.004137
H	 -2.514266	 -0.485137	 0.884506
C	 1.785711	 -0.615116	 0.004108
O	 0.413286	 1.323180	 0.009301
H	 1.868201	 -1.240082	 -0.877487
H	 2.591494	 0.100208	 0.013679
H	 1.859146	 -1.253609	 0.876778

4 2 3 5 F
