%nprocshared=4
%mem=2GB
#HF/cc-pVTZ nosymm scf=tight opt=ModRedundant

Mol

0 1
H	 3.889604	 0.356866	 -0.089510
N	 3.091268	 -0.241216	 -0.065538
C	 1.860978	 0.530248	 0.016256
H	 3.192566	 -0.835836	 0.730398
C	 0.644130	 -0.381765	 -0.031064
H	 1.835721	 1.204666	 -0.833114
H	 1.808789	 1.151975	 0.911067
C	 -0.678115	 0.376691	 0.025731
H	 0.693998	 -0.977147	 -0.936845
H	 0.693309	 -1.082142	 0.800523
C	 -0.525496	 1.876235	 -0.213599
H	 -1.143122	 0.216406	 0.995799
H	 -1.364640	 -0.033685	 -0.711254
C	 -1.848667	 2.631750	 -0.149651
H	 0.160408	 2.288084	 0.521389
H	 -0.064512	 2.039261	 -1.184005
H	 -2.318330	 2.517004	 0.821683
H	 -1.704791	 3.691979	 -0.323493
H	 -2.545122	 2.265861	 -0.896921

12 8 5 9 F
