%nprocshared=4
%mem=2GB
#HF/cc-pVTZ nosymm scf=tight opt=ModRedundant

Mol

0 1
O	 3.042008	 -0.988224	 0.050560
C	 2.574127	 -2.072921	 -0.023620
C	 3.300766	 -3.312667	 -0.478981
O	 1.317782	 -2.342573	 0.292610
C	 2.846003	 -4.579110	 0.235557
H	 3.164852	 -3.380102	 -1.551610
H	 4.360651	 -3.136320	 -0.324463
C	 1.338077	 -4.823042	 0.161431
H	 3.160776	 -4.537866	 1.272518
H	 3.363548	 -5.425215	 -0.199486
C	 0.724318	 -4.665981	 -1.228907
H	 0.851410	 -4.124383	 0.835372
H	 1.113162	 -5.816109	 0.544199
C	 1.500900	 -5.410768	 -2.311496
H	 -0.300651	 -5.029177	 -1.208937
H	 0.670303	 -3.615040	 -1.497496
C	 2.878024	 -4.815269	 -2.590217
H	 0.920409	 -5.415027	 -3.230926
H	 1.614323	 -6.452384	 -2.019886
C	 3.646872	 -5.563590	 -3.674037
H	 2.766298	 -3.774526	 -2.881921
H	 3.460499	 -4.812852	 -1.672844
H	 4.618810	 -5.115872	 -3.846868
H	 3.106460	 -5.553740	 -4.614764
H	 3.805220	 -6.600471	 -3.396529
C	 0.824678	 -3.623490	 -0.043565
H	 -0.139967	 -3.792406	 0.411591
H	 1.544729	 -4.329140	 0.337866
H	 0.731980	 -3.727573	 -1.114467

6 3 2 1 F
