%nprocshared=4
%mem=2GB
#HF/cc-pVTZ nosymm scf=tight opt=ModRedundant

Mol

0 1
H	 -2.644180	 -0.653737	 1.272255
C	 -2.092774	 -0.380414	 0.391915
O	 -0.808934	 -0.154049	 0.752536
F	 -2.163230	 -1.351640	 -0.507133
F	 -2.627232	 0.691260	 -0.169301
C	 0.181981	 -0.915885	 0.172024
C	 1.145773	 -1.333772	 1.280065
Cl	 1.048368	 0.000697	 -1.074888
H	 -0.200736	 -1.807700	 -0.292561
F	 2.108026	 -2.076218	 0.794407
F	 0.493269	 -2.047147	 2.166997
F	 1.674691	 -0.308117	 1.888777

6 3 2 4 F
