%nprocshared=4
%mem=2GB
#HF/cc-pVTZ nosymm scf=tight opt=ModRedundant

Mol

0 1
H	 0.559871	 -3.346639	 -0.734483
O	 0.921754	 -2.606501	 -0.270875
C	 0.116995	 -1.562917	 -0.451782
C	 0.626018	 -0.337582	 0.258241
O	 -0.869001	 -1.635093	 -1.100198
C	 -0.267326	 0.883135	 0.076490
H	 0.741926	 -0.606795	 1.301289
H	 1.628560	 -0.149021	 -0.112955
C	 -1.726822	 0.642622	 0.463839
H	 -0.210803	 1.217591	 -0.953497
H	 0.129920	 1.693110	 0.675679
C	 -2.684470	 0.443889	 -0.709811
H	 -2.065346	 1.495327	 1.044830
H	 -1.788789	 -0.217041	 1.127606
C	 -4.138528	 0.313821	 -0.267912
H	 -2.589665	 1.283549	 -1.393198
H	 -2.408145	 -0.441646	 -1.273219
H	 -4.796384	 0.176115	 -1.118173
H	 -4.466281	 1.200390	 0.264320
H	 -4.271541	 -0.535550	 0.393928

12 9 6 10 F
