%nprocshared=4
%mem=2GB
#HF/cc-pVTZ nosymm scf=tight opt=ModRedundant

Mol

0 1
O	 -2.817697	 1.304178	 0.001046
C	 -2.664672	 0.129869	 0.003507
C	 -3.797908	 -0.860100	 -0.001145
O	 -1.481217	 -0.452708	 0.001092
H	 -4.408836	 -0.679689	 -0.875387
H	 -3.443486	 -1.878443	 -0.002770
H	 -4.412123	 -0.683688	 0.871605
C	 -0.332055	 0.384012	 -0.000250
C	 0.892252	 -0.506059	 -0.000295
H	 -0.360822	 1.020205	 -0.874146
H	 -0.359817	 1.021310	 0.872861
C	 1.380162	 -0.811923	 -1.413360
H	 0.655861	 -1.429584	 0.518252
H	 1.679998	 -0.020987	 0.567003
C	 2.615105	 -1.708257	 -1.438392
H	 0.581965	 -1.288026	 -1.977439
H	 1.603961	 0.118674	 -1.928992
C	 3.103698	 -2.013179	 -2.850238
H	 2.392164	 -2.639239	 -0.924948
H	 3.413480	 -1.233451	 -0.875148
H	 2.338255	 -2.519705	 -3.428490
H	 3.980173	 -2.650351	 -2.832670
H	 3.367177	 -1.102981	 -3.378417

13 9 8 10 F
