%nprocshared=1
%mem=2GB
#HF/6-31G* nosymm scf=tight 

Mol

0 1
O	 3.225979	 0.970355	 -0.599647
C	 2.701189	 0.057885	 -0.047330
C	 1.245376	 -0.013843	 0.345420
O	 3.347903	 -1.046386	 0.304773
C	 0.850614	 1.037882	 1.379901
H	 0.664865	 0.074923	 -0.566896
H	 1.060502	 -1.018052	 0.718358
C	 -0.596963	 0.911712	 1.866828
H	 1.014194	 2.027988	 0.965111
H	 1.519648	 0.955205	 2.229596
C	 -1.662399	 1.192608	 0.803318
H	 -0.736927	 1.607390	 2.690942
H	 -0.754485	 -0.082725	 2.281907
C	 -3.085560	 1.161950	 1.364275
H	 -1.473176	 2.167322	 0.356163
H	 -1.587260	 0.466743	 -0.003184
C	 -4.158915	 1.436153	 0.309357
H	 -3.172986	 1.895667	 2.163807
H	 -3.271731	 0.191192	 1.821078
C	 -5.577018	 1.407521	 0.878447
H	 -3.973799	 2.405400	 -0.148831
H	 -4.075924	 0.701123	 -0.488530
H	 -6.314934	 1.605165	 0.107069
H	 -5.702665	 2.155985	 1.655757
H	 -5.805252	 0.438751	 1.313956
C	 4.728119	 -1.109107	 -0.004993
H	 4.882018	 -1.033965	 -1.071845
H	 5.068212	 -2.067527	 0.355250
H	 5.265056	 -0.311663	 0.488280

21 17 14 11 F
17 14 11 15 F
15 11 8 5 F
6 3 5 9 F
11 8 5 9 F
2 4 26 27 F
1 2 4 26 F
