%nprocshared=1
%mem=2GB
#HF/6-31G* nosymm scf=tight 

Mol

0 1
H	 -3.161837	 0.500524	 -0.000234
C	 -2.367097	 -0.232926	 -0.000000
O	 -1.158440	 0.455814	 -0.000122
H	 -2.468853	 -0.861886	 -0.882833
H	 -2.468942	 -0.861421	 0.883154
C	 -0.029776	 -0.365156	 0.000148
C	 1.212217	 0.508981	 0.000007
H	 -0.036772	 -1.013236	 -0.877259
H	 -0.036869	 -1.012778	 0.877897
C	 1.246330	 1.476087	 1.182557
H	 2.086248	 -0.134794	 0.016848
H	 1.246114	 1.058876	 -0.935496
H	 1.237727	 0.944311	 2.129955
H	 2.142273	 2.087225	 1.157236
H	 0.391142	 2.146110	 1.171274

6 3 2 4 F
8 6 3 2 F
