%nprocshared=4
%mem=2GB
#HF/6-31G* nosymm scf=tight opt=ModRedundant

Mol

0 1
H	 1.086811	 -0.386981	 -4.180088
O	 1.119568	 -1.167922	 -4.713126
C	 1.533245	 -2.258714	 -3.930120
C	 0.462556	 -2.740940	 -2.957592
H	 1.774012	 -3.048744	 -4.629806
H	 2.447708	 -2.015312	 -3.390406
C	 0.081127	 -1.711252	 -1.891234
H	 -0.419939	 -3.020509	 -3.527162
H	 0.827101	 -3.645233	 -2.473104
C	 -0.955592	 -2.244467	 -0.898402
H	 -0.306808	 -0.820534	 -2.377539
H	 0.974545	 -1.406974	 -1.345744
C	 -1.309753	 -1.282496	 0.241564
H	 -1.862350	 -2.513077	 -1.437369
H	 -0.576651	 -3.167501	 -0.464681
C	 -2.037799	 -0.007733	 -0.193645
H	 -1.936981	 -1.813677	 0.954480
H	 -0.402199	 -1.013661	 0.779999
C	 -3.489788	 0.042957	 0.286558
H	 -2.017067	 0.064384	 -1.280144
H	 -1.513726	 0.868678	 0.179924
C	 -4.216917	 1.317354	 -0.141063
H	 -4.025645	 -0.823308	 -0.095450
H	 -3.513059	 -0.038752	 1.371301
H	 -4.239342	 1.411634	 -1.223113
H	 -5.243387	 1.322503	 0.212445
H	 -3.726170	 2.201406	 0.256408

10 13 16 20 F
