%nprocshared=4
%mem=2GB
#HF/6-31G* nosymm scf=tight opt=ModRedundant

Mol

0 1
H	 2.591676	 2.013956	 0.335017
O	 3.341076	 1.666752	 -0.126416
C	 3.569581	 0.339145	 0.272707
C	 2.539767	 -0.640285	 -0.279495
H	 4.553106	 0.084646	 -0.100901
H	 3.608576	 0.269204	 1.359154
C	 3.027449	 -2.090060	 -0.335964
H	 1.643760	 -0.580220	 0.332820
H	 2.262774	 -0.312668	 -1.280149
C	 1.991422	 -3.039156	 -0.944800
H	 3.277854	 -2.421918	 0.667796
H	 3.945674	 -2.140665	 -0.921321
C	 2.461731	 -4.489664	 -1.103470
H	 1.087230	 -3.018261	 -0.339120
H	 1.708281	 -2.659984	 -1.924474
C	 2.714413	 -5.232698	 0.211266
H	 1.708133	 -5.033244	 -1.669532
H	 3.366617	 -4.509892	 -1.708952
C	 3.078950	 -6.704261	 0.003780
H	 1.824978	 -5.168666	 0.836499
H	 3.513315	 -4.748203	 0.767435
C	 3.337968	 -7.446686	 1.314269
H	 2.277516	 -7.200446	 -0.539351
H	 3.961792	 -6.770501	 -0.628745
H	 2.461679	 -7.426534	 1.956090
H	 3.591763	 -8.486759	 1.134074
H	 4.159591	 -6.996675	 1.864532

8 4 3 2 F
