%nprocshared=4
%mem=2GB
#HF/6-31G* nosymm scf=tight opt=ModRedundant

Mol

0 1
H	 -6.091001	 -3.063443	 -0.012152
O	 -6.317167	 -3.542714	 0.771569
C	 -5.281234	 -4.434373	 1.096901
C	 -4.043001	 -3.740042	 1.653148
H	 -5.691640	 -5.102735	 1.842913
H	 -5.014414	 -5.040439	 0.231875
C	 -3.354575	 -2.803352	 0.657382
H	 -4.329969	 -3.182042	 2.540646
H	 -3.339746	 -4.506745	 1.974031
C	 -2.085326	 -2.163918	 1.227425
H	 -4.051027	 -2.024432	 0.359716
H	 -3.100197	 -3.358559	 -0.245601
C	 -1.309753	 -1.282496	 0.241564
H	 -2.343932	 -1.577887	 2.107503
H	 -1.424767	 -2.955712	 1.574449
C	 -2.037799	 -0.007733	 -0.193645
H	 -0.365652	 -1.001820	 0.703854
H	 -1.051845	 -1.869105	 -0.638896
C	 -3.489788	 0.042957	 0.286558
H	 -2.017067	 0.064384	 -1.280144
H	 -1.513726	 0.868678	 0.179924
C	 -4.216917	 1.317354	 -0.141063
H	 -4.025645	 -0.823308	 -0.095450
H	 -3.513059	 -0.038752	 1.371301
H	 -4.239342	 1.411634	 -1.223113
H	 -5.243387	 1.322503	 0.212445
H	 -3.726170	 2.201406	 0.256408

10 13 16 20 F
