%nprocshared=4
%mem=2GB
#HF/cc-pVTZ nosymm scf=tight opt=ModRedundant

Mol

0 1
H	 -3.561665	 -2.558572	 1.658482
C	 -3.071021	 -1.697568	 1.253204
C	 -1.870277	 -1.820216	 0.742796
H	 -3.579344	 -0.753669	 1.274675
O	 -1.189946	 -0.765863	 0.237511
H	 -1.355140	 -2.762864	 0.708478
C	 0.026572	 -0.995256	 -0.379403
C	 1.057223	 0.049888	 -0.004615
H	 -0.054361	 -1.010670	 -1.459674
H	 0.397526	 -1.952058	 -0.044198
F	 2.203233	 -0.234060	 -0.590375
F	 0.698147	 1.254887	 -0.392621
F	 1.266440	 0.094219	 1.288722

3 5 7 9 F
