%nprocshared=4
%mem=2GB
#HF/cc-pVTZ nosymm scf=tight opt=ModRedundant

Mol

0 1
H	 0.717767	 3.580963	 1.067621
O	 1.456386	 3.059460	 0.808394
C	 1.078248	 1.828967	 0.419187
C	 2.073337	 0.953112	 0.009559
C	 -0.239865	 1.425319	 0.416746
H	 3.091846	 1.287331	 0.019223
C	 1.745831	 -0.319184	 -0.399529
H	 -1.027492	 2.079835	 0.727472
C	 -0.532034	 0.141680	 0.000000
H	 2.521534	 -0.989177	 -0.714398
C	 0.428954	 -0.747729	 -0.410776
N	 -1.937041	 -0.281114	 0.000000
H	 0.159858	 -1.732185	 -0.725667
O	 -2.159542	 -1.446261	 0.000000
O	 -2.764978	 0.565773	 0.000000

11 9 12 14 F
