%nprocshared=4
%mem=2GB
#HF/cc-pVTZ nosymm scf=tight opt=ModRedundant

Mol

0 1
O	 1.869837	 2.076182	 1.800401
C	 1.212342	 1.090268	 1.716095
C	 0.149708	 0.948405	 0.644306
C	 1.410808	 -0.076498	 2.654196
C	 0.762352	 0.471935	 -0.678753
H	 -0.306265	 1.920308	 0.504284
H	 -0.618985	 0.253854	 0.966135
C	 1.630207	 -0.772146	 -0.501001
H	 -0.043337	 0.276151	 -1.375001
H	 1.364022	 1.267511	 -1.111593
C	 2.907848	 -0.545876	 0.309149
H	 1.891250	 -1.167603	 -1.479494
H	 1.040969	 -1.541409	 -0.009434
C	 3.373802	 0.906639	 0.372125
H	 3.699140	 -1.146831	 -0.127906
H	 2.764321	 -0.923458	 1.318191
H	 3.519798	 1.311927	 -0.623875
H	 4.316899	 0.983758	 0.900700
H	 2.661122	 1.540651	 0.885346
H	 0.536760	 -0.175759	 3.289953
H	 2.285170	 0.082833	 3.266302
H	 1.509211	 -1.002257	 2.098428

12 8 11 15 F
