%nprocshared=4
%mem=2GB
#HF/cc-pVTZ nosymm scf=tight opt=ModRedundant

Mol

0 1
O	 3.125054	 -2.553685	 -0.954387
C	 2.574127	 -2.072921	 -0.023620
C	 3.183153	 -1.092980	 0.946499
O	 1.317782	 -2.342573	 0.292610
C	 4.631183	 -0.743394	 0.626728
H	 2.545081	 -0.217538	 0.950619
H	 3.096181	 -1.528488	 1.937003
C	 4.844199	 -0.237697	 -0.800764
H	 5.256983	 -1.610695	 0.806270
H	 4.965098	 0.014556	 1.324597
C	 3.853583	 0.829157	 -1.264348
H	 4.775700	 -1.088465	 -1.472081
H	 5.857810	 0.143987	 -0.901704
C	 3.677294	 1.959150	 -0.253495
H	 4.193879	 1.244274	 -2.210259
H	 2.884183	 0.380041	 -1.459528
C	 2.974988	 1.523060	 1.029223
H	 3.113075	 2.767053	 -0.713157
H	 4.651563	 2.373413	 -0.004391
C	 2.800974	 2.657722	 2.033234
H	 2.001237	 1.109082	 0.781938
H	 3.539171	 0.717473	 1.491374
H	 2.299981	 2.314720	 2.931198
H	 2.210204	 3.464873	 1.612985
H	 3.760233	 3.070775	 2.327201
C	 0.824678	 -3.623490	 -0.043565
H	 -0.139967	 -3.792406	 0.411591
H	 1.544729	 -4.329140	 0.337866
H	 0.731980	 -3.727573	 -1.114467

1 2 4 26 F
