%nprocshared=4
%mem=2GB
#HF/cc-pVTZ nosymm scf=tight opt=ModRedundant

Mol

0 1
H	 -0.497530	 -1.633399	 0.150027
N	 -0.625934	 -0.663929	 -0.000707
C	 -1.968505	 -0.173022	 -0.204689
C	 0.468494	 0.129045	 -0.002160
H	 -2.420425	 -0.630030	 -1.076985
H	 -1.921113	 0.892024	 -0.354775
H	 -2.592302	 -0.377852	 0.657262
C	 1.785715	 -0.615093	 0.000603
O	 0.413285	 1.323206	 0.000532
H	 1.866994	 -1.243310	 -0.878792
H	 2.591506	 0.100263	 0.006422
H	 1.860358	 -1.250360	 0.875522

3 2 4 9 F
