%nprocshared=4
%mem=2GB
#HF/6-31G* nosymm scf=tight opt=ModRedundant

Mol

0 1
H	 1.706674	 2.219434	 2.417370
O	 2.616931	 2.054073	 2.219479
C	 2.906234	 0.694244	 2.422515
C	 2.313891	 -0.213038	 1.349810
H	 3.985917	 0.618038	 2.410279
H	 2.571050	 0.376533	 3.409171
C	 0.783699	 -0.216130	 1.312792
H	 2.701719	 0.097299	 0.383038
H	 2.673433	 -1.225534	 1.525730
C	 0.219554	 -1.177006	 0.262422
H	 0.429368	 0.790862	 1.110850
H	 0.398329	 -0.493411	 2.294090
C	 -1.309753	 -1.282496	 0.241564
H	 0.573102	 -0.878158	 -0.722738
H	 0.630501	 -2.167946	 0.443694
C	 -2.037799	 -0.007733	 -0.193645
H	 -1.587490	 -2.088337	 -0.434674
H	 -1.662903	 -1.580897	 1.227505
C	 -3.489788	 0.042957	 0.286558
H	 -2.017067	 0.064384	 -1.280144
H	 -1.513726	 0.868678	 0.179924
C	 -4.216917	 1.317354	 -0.141063
H	 -4.025645	 -0.823308	 -0.095450
H	 -3.513059	 -0.038752	 1.371301
H	 -4.239342	 1.411634	 -1.223113
H	 -5.243387	 1.322503	 0.212445
H	 -3.726170	 2.201406	 0.256408

10 13 16 20 F
