%nprocshared=4
%mem=2GB
#HF/cc-pVTZ nosymm scf=tight opt=ModRedundant

Mol

0 1
O	 3.463206	 -2.123213	 0.756117
C	 2.574127	 -2.072921	 -0.023620
C	 2.703511	 -1.702971	 -1.479204
O	 1.317782	 -2.342573	 0.292610
C	 4.133127	 -1.385528	 -1.899543
H	 2.284617	 -2.522909	 -2.049978
H	 2.048150	 -0.855160	 -1.652546
C	 5.134653	 -2.493394	 -1.570273
H	 4.445711	 -0.457534	 -1.433509
H	 4.146031	 -1.202052	 -2.966866
C	 4.693461	 -3.902633	 -1.962446
H	 5.317610	 -2.473410	 -0.500090
H	 6.088843	 -2.270338	 -2.042553
C	 4.163454	 -3.985882	 -3.391414
H	 5.534771	 -4.582979	 -1.851998
H	 3.923825	 -4.256474	 -1.282745
C	 2.837855	 -3.256798	 -3.591411
H	 4.042600	 -5.030223	 -3.669059
H	 4.903957	 -3.574672	 -4.073636
C	 2.314002	 -3.346021	 -5.020884
H	 2.096862	 -3.666737	 -2.910529
H	 2.957674	 -2.212195	 -3.316994
H	 1.373106	 -2.818636	 -5.128418
H	 2.149955	 -4.377716	 -5.313807
H	 3.018040	 -2.912593	 -5.723507
C	 0.824678	 -3.623490	 -0.043565
H	 -0.139967	 -3.792406	 0.411591
H	 1.544729	 -4.329140	 0.337866
H	 0.731980	 -3.727573	 -1.114467

1 2 4 26 F
