%nprocshared=4
%mem=2GB
#HF/cc-pVTZ nosymm scf=tight opt=ModRedundant

Mol

0 1
H	 -1.835082	 1.385983	 0.000069
C	 -1.300516	 0.441153	 -0.000028
O	 -0.006604	 0.654344	 -0.000106
O	 -1.828920	 -0.612308	 0.000113
C	 0.852093	 -0.482521	 -0.000161
C	 1.887094	 -0.278554	 -1.080843
H	 0.258870	 -1.368250	 -0.177724
H	 1.307080	 -0.576604	 0.975595
H	 1.417238	 -0.182120	 -2.051362
H	 2.558337	 -1.128601	 -1.107418
H	 2.470704	 0.613525	 -0.892260

7 5 3 2 F
