%nprocshared=4
%mem=2GB
#HF/cc-pVTZ nosymm scf=tight opt=ModRedundant

Mol

0 1
H	 2.322238	 -2.160049	 1.307884
C	 1.820648	 -1.629955	 0.505269
C	 0.732594	 -0.727122	 1.070543
H	 1.390035	 -2.357769	 -0.171326
H	 2.573456	 -1.073836	 -0.039474
N	 0.000297	 0.000045	 0.046090
H	 0.033511	 -1.346523	 1.615283
H	 1.163744	 -0.040617	 1.804541
C	 -1.359159	 0.315706	 0.454404
C	 0.722793	 1.169561	 -0.427994
C	 -2.416729	 -0.286720	 -0.460525
H	 -1.478729	 1.390261	 0.442008
H	 -1.539692	 0.003361	 1.486761
C	 0.378685	 1.547976	 -1.862159
H	 1.782231	 0.958410	 -0.382552
H	 0.556615	 2.025613	 0.231910
H	 -2.285276	 0.073129	 -1.473515
H	 -2.371743	 -1.368476	 -0.483209
H	 -3.408658	 -0.007405	 -0.121593
H	 0.606099	 0.727411	 -2.531385
H	 -0.669155	 1.794073	 -1.981507
H	 0.955336	 2.413722	 -2.170003

3 6 9 11 F
