%nprocshared=4
%mem=2GB
#HF/cc-pVTZ nosymm scf=tight opt=ModRedundant

Mol

0 1
O	 3.219313	 0.959291	 -0.614106
C	 2.698710	 0.058177	 -0.050237
C	 1.246364	 -0.005813	 0.348416
O	 3.344101	 -1.038700	 0.312317
C	 0.453207	 1.232821	 -0.049003
H	 0.839270	 -0.907818	 -0.092281
H	 1.216683	 -0.160521	 1.422434
C	 -0.998367	 1.217982	 0.432195
H	 0.481498	 1.345443	 -1.127236
H	 0.951413	 2.105557	 0.354893
C	 -1.882951	 0.151251	 -0.211235
H	 -1.429490	 2.193659	 0.228843
H	 -1.019755	 1.099323	 1.513279
C	 -3.300528	 0.642115	 -0.492865
H	 -1.425702	 -0.176773	 -1.141931
H	 -1.936794	 -0.725356	 0.427668
C	 -4.195121	 -0.417228	 -1.130257
H	 -3.256404	 1.511785	 -1.144070
H	 -3.754180	 0.981416	 0.435542
C	 -5.608977	 0.081192	 -1.410197
H	 -3.743225	 -0.757092	 -2.058159
H	 -4.242531	 -1.286059	 -0.479302
H	 -6.217009	 -0.694300	 -1.861742
H	 -5.598134	 0.928886	 -2.087254
H	 -6.100942	 0.396657	 -0.496052
C	 4.720529	 -1.114346	 0.001449
H	 4.874321	 -1.055557	 -1.065852
H	 5.057824	 -2.067950	 0.373977
H	 5.264321	 -0.313596	 0.480350

15 11 8 5 F
