%nprocshared=4
%mem=2GB
#HF/cc-pVTZ nosymm scf=tight opt=ModRedundant

Mol

0 1
H	 -3.436473	 1.252944	 -1.023892
O	 -3.458596	 0.315260	 -0.960865
C	 -3.176635	 -0.080824	 0.355601
C	 -1.763371	 0.265266	 0.799691
H	 -3.321825	 -1.153438	 0.379502
H	 -3.895468	 0.357385	 1.043382
C	 -0.673390	 -0.426948	 -0.013392
H	 -1.631049	 1.344913	 0.747560
H	 -1.664587	 -0.001624	 1.849167
C	 -1.144982	 -0.870863	 -1.395605
H	 -0.306033	 -1.284919	 0.538738
H	 0.170852	 0.249929	 -0.121089
C	 -1.898722	 0.224553	 -2.147262
H	 -0.284780	 -1.193200	 -1.974433
H	 -1.788808	 -1.742190	 -1.294933
C	 -3.245973	 0.614236	 -1.536599
H	 -2.050312	 -0.087378	 -3.178072
H	 -1.271271	 1.110636	 -2.189462
C	 -4.309056	 -0.480626	 -1.584311
H	 -3.621826	 1.486013	 -2.063397
H	 -3.095794	 0.925575	 -0.506097
H	 -4.476347	 -0.816342	 -2.602832
H	 -5.254215	 -0.115741	 -1.198598
H	 -4.029047	 -1.344362	 -0.993413

11 7 4 3 F
