%nprocshared=4
%mem=2GB
#HF/cc-pVTZ nosymm scf=tight opt=ModRedundant

Mol

0 1
H	 -2.122914	 1.354011	 -2.124813
O	 -2.258976	 1.913784	 -1.381447
C	 -1.118959	 1.916352	 -0.578963
C	 -0.793473	 0.591216	 0.050087
H	 -1.294615	 2.647812	 0.201047
H	 -0.251713	 2.262283	 -1.138351
C	 -1.534243	 -0.493009	 -0.013340
H	 0.136560	 0.568819	 0.593948
H	 -1.101195	 -1.466332	 -0.144046
H	 -2.604242	 -0.437780	 0.050785

3 4 7 9 F
