%nprocshared=1
%mem=2GB
#HF/6-31G* nosymm scf=tight opt=ModRedundant

Mol

0 1
H	 -3.364762	 -2.627118	 1.915148
C	 -2.967265	 -1.801385	 1.357634
C	 -1.738789	 -1.853752	 0.897085
H	 -3.593889	 -0.945615	 1.190570
O	 -1.180634	 -0.819263	 0.215062
H	 -1.097584	 -2.704327	 1.047329
C	 0.051604	 -1.018856	 -0.387932
C	 1.043764	 0.054862	 -0.001873
H	 -0.017620	 -1.041351	 -1.469781
H	 0.437898	 -1.966374	 -0.042284
F	 2.212596	 -0.199467	 -0.571921
F	 0.652529	 1.252447	 -0.405055
F	 1.230877	 0.110694	 1.300533

3 5 7 9 F
