%nprocshared=1
%mem=2GB
#HF/6-31G* nosymm scf=tight opt=ModRedundant

Mol

0 1
O	 -1.426348	 2.196658	 -1.956250
C	 -1.593982	 1.271659	 -1.220920
C	 -0.653105	 0.079770	 -1.242257
C	 -2.723141	 1.251636	 -0.214951
C	 0.645510	 0.392942	 -0.481558
H	 -0.421512	 -0.137865	 -2.279226
H	 -1.133731	 -0.794384	 -0.812280
C	 1.631333	 -0.777471	 -0.511575
H	 1.090277	 1.278147	 -0.921987
H	 0.413531	 0.639402	 0.553425
C	 2.915987	 -0.544314	 0.291766
H	 1.889634	 -1.001481	 -1.544931
H	 1.135138	 -1.664038	 -0.122167
C	 3.373361	 0.914346	 0.347591
H	 3.708709	 -1.142521	 -0.150311
H	 2.780642	 -0.921148	 1.303579
H	 3.506512	 1.320010	 -0.651625
H	 4.322697	 0.999599	 0.867103
H	 2.660624	 1.545032	 0.868198
H	 -3.428905	 0.466613	 -0.473605
H	 -3.232499	 2.205220	 -0.211043
H	 -2.347856	 1.029542	 0.779856

12 8 11 15 F
