%nprocshared=1
%mem=2GB
#HF/6-31G* nosymm scf=tight opt=ModRedundant

Mol

0 1
H	 -3.261111	 -0.295142	 1.469456
C	 -3.306842	 -0.277400	 0.373456
C	 -2.660244	 0.921717	 -0.272021
O	 -3.838538	 -1.161155	 -0.216482
C	 -1.220012	 1.144545	 0.209990
H	 -2.705793	 0.797307	 -1.347733
H	 -3.263782	 1.790044	 -0.010477
C	 -0.252658	 0.041456	 -0.226725
H	 -0.873521	 2.100229	 -0.171974
H	 -1.211708	 1.231594	 1.295398
C	 1.180775	 0.282413	 0.250794
H	 -0.266029	 -0.034465	 -1.312038
H	 -0.597733	 -0.921000	 0.146291
C	 2.148627	 -0.814315	 -0.201312
H	 1.516199	 1.249228	 -0.115937
H	 1.192670	 0.346017	 1.338083
C	 3.580890	 -0.659131	 0.322722
H	 2.166869	 -0.852443	 -1.289387
H	 1.762857	 -1.776509	 0.128956
C	 4.622957	 -0.356852	 -0.755398
H	 3.861957	 -1.578661	 0.830082
H	 3.605127	 0.123225	 1.078535
H	 4.610150	 -1.115117	 -1.533947
H	 4.452331	 0.604956	 -1.227401
H	 5.621988	 -0.337455	 -0.330478

20 17 14 18 F
