%nprocshared=4
%mem=2GB
#HF/cc-pVTZ nosymm scf=tight opt=ModRedundant

Mol

0 1
O	 -1.278239	 1.034789	 -0.784693
C	 -1.204115	 0.062668	 -0.112312
C	 -2.386398	 -0.667698	 0.460323
O	 -0.068058	 -0.518372	 0.226882
H	 -2.382952	 -1.693172	 0.114333
H	 -3.296656	 -0.175702	 0.158400
H	 -2.312537	 -0.685191	 1.540100
C	 0.703960	 0.023615	 1.303469
C	 2.142044	 -0.373066	 1.035754
C	 0.180233	 -0.500583	 2.628434
H	 0.604230	 1.098007	 1.274757
H	 2.474542	 0.014658	 0.081362
H	 2.786875	 0.024362	 1.810323
H	 2.246889	 -1.451379	 1.022183
H	 0.771417	 -0.100779	 3.444006
H	 -0.848126	 -0.203418	 2.779499
H	 0.242107	 -1.582457	 2.660121

8 4 2 1 F
