%nprocshared=4
%mem=2GB
#HF/cc-pVTZ nosymm scf=tight opt=ModRedundant

Mol

0 1
O	 1.216069	 1.304886	 0.000821
C	 1.121787	 0.124983	 0.000110
C	 -0.170912	 -0.649867	 -0.000147
O	 2.167739	 -0.685178	 -0.000678
C	 -1.413045	 0.229353	 0.001137
H	 -0.152877	 -1.303435	 -0.866175
H	 -0.152278	 -1.305116	 0.864586
C	 -2.447173	 -0.224100	 -1.025152
H	 -1.125387	 1.255912	 -0.196273
H	 -1.853103	 0.226175	 0.992037
C	 -3.695346	 0.651616	 -1.033936
H	 -1.999448	 -0.222040	 -2.015494
H	 -2.731379	 -1.253338	 -0.822343
H	 -3.448226	 1.681513	 -1.268089
H	 -4.411061	 0.306778	 -1.771171
H	 -4.185544	 0.642649	 -0.066358
C	 3.449556	 -0.089977	 -0.000570
H	 3.585694	 0.522473	 -0.879546
H	 4.155805	 -0.904274	 -0.001389
H	 3.586173	 0.521118	 0.879272

9 5 3 6 F
