%nprocshared=4
%mem=2GB
#HF/cc-pVTZ nosymm scf=tight opt=ModRedundant

Mol

0 1
H	 1.243329	 -2.262632	 -0.354208
C	 0.281054	 -1.784486	 -0.426566
O	 0.462329	 -0.453336	 -0.000137
H	 -0.423506	 -2.305156	 0.209608
H	 -0.058318	 -1.821958	 -1.454020
C	 -0.590565	 0.341382	 0.000062
O	 -1.693898	 -0.053880	 0.000252
H	 -0.340426	 1.403822	 0.000200

2 3 6 7 F
