%nprocshared=4
%mem=2GB
#HF/cc-pVTZ nosymm scf=tight opt=ModRedundant

Mol

0 1
H	 1.989421	 -5.993460	 3.199197
O	 2.449781	 -6.702204	 2.789831
C	 1.667079	 -7.866750	 2.811836
C	 0.494641	 -7.827868	 1.843042
H	 2.332905	 -8.675294	 2.541812
H	 1.311312	 -8.065829	 3.820919
C	 0.858174	 -7.355769	 0.437049
H	 0.054408	 -8.819286	 1.793616
H	 -0.261532	 -7.167028	 2.260045
C	 1.256083	 -5.881125	 0.393092
H	 0.016020	 -7.522682	 -0.226215
H	 1.680860	 -7.958612	 0.056190
C	 1.701674	 -5.372571	 -0.979160
H	 0.424727	 -5.276420	 0.747219
H	 2.067154	 -5.721496	 1.098182
C	 3.009841	 -5.968591	 -1.496077
H	 0.915177	 -5.592173	 -1.695906
H	 1.787466	 -4.288643	 -0.949232
C	 3.483501	 -7.168232	 -0.679428
H	 3.781425	 -5.201776	 -1.485084
H	 2.898094	 -6.272898	 -2.532375
C	 4.787405	 -7.768073	 -1.195101
H	 3.610487	 -6.868801	 0.357294
H	 2.710250	 -7.931867	 -0.682378
H	 5.589371	 -7.037552	 -1.174452
H	 5.096164	 -8.614511	 -0.592342
H	 4.682460	 -8.112344	 -2.218729

10 13 16 20 F
