%nprocshared=4
%mem=2GB
#HF/cc-pVTZ nosymm scf=tight opt=ModRedundant

Mol

0 1
H	 -3.498985	 1.253143	 -1.010443
O	 -3.458596	 0.315260	 -0.960865
C	 -3.176635	 -0.080824	 0.355601
C	 -1.763371	 0.265266	 0.799691
H	 -3.321825	 -1.153438	 0.379502
H	 -3.895468	 0.357385	 1.043382
C	 -0.702669	 -0.712355	 0.302208
H	 -1.523099	 1.271923	 0.460905
H	 -1.750222	 0.300258	 1.886425
C	 -0.824093	 -2.099934	 0.926589
H	 0.281771	 -0.306150	 0.506633
H	 -0.778786	 -0.796161	 -0.779314
C	 -2.251500	 -2.642784	 0.897066
H	 -0.157773	 -2.780291	 0.405032
H	 -0.477461	 -2.063750	 1.957314
C	 -3.246915	 -1.884655	 1.776973
H	 -2.242537	 -3.690551	 1.188534
H	 -2.610618	 -2.617989	 -0.128136
C	 -2.983460	 -1.991804	 3.277058
H	 -4.243534	 -2.263372	 1.571789
H	 -3.256259	 -0.837160	 1.486995
H	 -2.962524	 -3.029297	 3.595253
H	 -3.761849	 -1.490281	 3.840819
H	 -2.038710	 -1.541285	 3.556496

7 4 3 2 F
