%nprocshared=1
%mem=2GB
#HF/6-31G* nosymm scf=tight 

Mol

0 1
O	 -2.042549	 -1.228399	 -0.269030
C	 -1.653912	 -0.146171	 0.050137
C	 -0.332303	 0.024011	 0.778412
C	 -2.438579	 1.106236	 -0.272369
C	 0.214710	 -1.333245	 1.247991
H	 0.395421	 0.514413	 0.137861
H	 -0.510051	 0.660523	 1.638168
C	 1.531936	 -1.204017	 2.014312
H	 0.361717	 -1.987398	 0.390346
H	 -0.531868	 -1.808344	 1.877312
C	 2.073611	 -2.551347	 2.490228
H	 2.272299	 -0.719209	 1.381659
H	 1.384888	 -0.550106	 2.870668
H	 2.263202	 -3.216509	 1.652573
H	 1.367980	 -3.045538	 3.151518
H	 3.005757	 -2.428848	 3.032560
H	 -3.277823	 0.863061	 -0.908988
H	 -1.806773	 1.843019	 -0.759671
H	 -2.802853	 1.554979	 0.648059

11 8 5 9 F
9 5 3 2 F
