%nprocshared=1
%mem=2GB
#HF/6-31G* nosymm scf=tight 

Mol

0 1
O	 0.749854	 1.307668	 -0.000040
C	 0.576249	 0.131685	 -0.000108
C	 -0.766779	 -0.556801	 -0.000461
O	 1.568443	 -0.749345	 -0.000005
C	 -1.945214	 0.412366	 0.000161
H	 -0.796911	 -1.211249	 -0.867467
H	 -0.796854	 -1.212390	 0.865687
C	 -3.249975	 -0.270812	 -0.406575
H	 -1.732421	 1.235143	 -0.673902
H	 -2.048577	 0.849557	 0.987458
H	 -3.182103	 -0.690296	 -1.406515
H	 -4.074448	 0.434600	 -0.400356
H	 -3.502344	 -1.079379	 0.273869
C	 2.886820	 -0.232538	 0.000322
H	 3.059106	 0.369571	 -0.880203
H	 3.540187	 -1.091012	 0.000050
H	 3.059019	 0.368956	 0.881266

1 2 3 6 F
14 4 2 1 F
