%nprocshared=4
%mem=2GB
#HF/cc-pVTZ nosymm scf=tight opt=ModRedundant

Mol

0 1
H	 -2.171709	 0.882708	 0.500286
C	 -2.016894	 0.001719	 -0.114152
O	 -0.775228	 0.000056	 -0.739966
H	 -2.760846	 0.003757	 -0.898169
H	 -2.174774	 -0.879864	 0.498643
C	 -0.691354	 -0.178988	 -2.140033
C	 0.804486	 -0.118843	 -2.429397
C	 -1.247213	 -1.542286	 -2.556058
C	 -1.410940	 0.947195	 -2.884684
H	 1.321652	 -0.898532	 -1.884671
H	 1.207366	 0.835601	 -2.115026
H	 1.000835	 -0.246432	 -3.487290
H	 -0.780194	 -2.330885	 -1.978411
H	 -1.045379	 -1.722935	 -3.605114
H	 -2.319214	 -1.605017	 -2.416625
H	 -1.059348	 1.911659	 -2.538442
H	 -1.216088	 0.875096	 -3.948033
H	 -2.484326	 0.905166	 -2.748146

6 3 2 5 F
