%nprocshared=4
%mem=2GB
#HF/cc-pVTZ nosymm scf=tight opt=ModRedundant

Mol

0 1
O	 -0.004026	 0.391561	 -0.249972
C	 1.121787	 0.124983	 0.000110
C	 1.778757	 0.277178	 1.347956
O	 1.969101	 -0.353489	 -0.896273
C	 0.948741	 -0.269988	 2.500174
H	 2.744597	 -0.214167	 1.291258
H	 1.991941	 1.332466	 1.483539
C	 0.520194	 -1.716595	 2.272168
H	 0.073572	 0.354701	 2.639395
H	 1.519310	 -0.196454	 3.419189
C	 -0.314233	 -2.274325	 3.420018
H	 -0.048200	 -1.784480	 1.348284
H	 1.401251	 -2.337606	 2.133175
H	 -1.220198	 -1.694910	 3.561761
H	 -0.604011	 -3.301467	 3.231113
H	 0.239775	 -2.252181	 4.352308
C	 3.226978	 0.281687	 -1.004047
H	 3.107866	 1.319775	 -1.276836
H	 3.762124	 -0.246898	 -1.776112
H	 3.765395	 0.222432	 -0.069799

1 2 4 17 F
