%nprocshared=1
%mem=2GB
#HF/6-31G* nosymm scf=tight 

Mol

0 1
H	 -2.279788	 1.059650	 1.978929
C	 -1.629949	 0.980506	 2.848174
O	 -0.361594	 0.530340	 2.496089
H	 -1.516895	 1.960409	 3.291063
H	 -2.102784	 0.319471	 3.573356
C	 -0.346741	 -0.734534	 1.913746
C	 1.060829	 -1.066877	 1.477282
H	 -0.686571	 -1.484262	 2.629371
H	 -1.007908	 -0.770937	 1.050301
O	 1.392611	 -0.295398	 0.366430
H	 1.746177	 -0.875110	 2.300404
H	 1.118827	 -2.128005	 1.231644
C	 2.706965	 -0.449871	 -0.062409
H	 2.756559	 -0.644779	 -1.131878
H	 3.305899	 0.433456	 0.155466
H	 3.125548	 -1.294566	 0.467107

3 6 7 11 F
2 3 6 7 F
