%nprocshared=4
%mem=2GB
#HF/cc-pVTZ nosymm scf=tight opt=ModRedundant

Mol

0 1
O	 -4.741559	 3.677983	 3.374923
C	 -3.562142	 3.759984	 3.486103
C	 -2.630085	 2.634875	 3.084568
C	 -2.907686	 5.004973	 4.041002
C	 -2.930863	 2.021940	 1.724174
H	 -1.614819	 3.023858	 3.116108
H	 -2.673335	 1.879345	 3.865793
C	 -1.772337	 1.185197	 1.188646
H	 -3.169046	 2.813234	 1.022577
H	 -3.823040	 1.410758	 1.799078
C	 -2.061065	 0.565016	 -0.175297
H	 -0.880456	 1.803985	 1.118487
H	 -1.537707	 0.394886	 1.898308
C	 -2.487094	 1.584360	 -1.227995
H	 -2.838993	 -0.187145	 -0.069498
H	 -1.176128	 0.038357	 -0.524074
C	 -3.912483	 2.089526	 -1.030858
H	 -1.801188	 2.427063	 -1.209989
H	 -2.396457	 1.139851	 -2.215474
H	 -4.026921	 2.570825	 -0.065304
H	 -4.183046	 2.810652	 -1.793613
H	 -4.626596	 1.274162	 -1.078478
H	 -2.221465	 5.423139	 3.312795
H	 -3.662109	 5.735040	 4.290482
H	 -2.329392	 4.760820	 4.925313

9 5 3 6 F
