%nprocshared=4
%mem=2GB
#HF/cc-pVTZ nosymm scf=tight opt=ModRedundant

Mol

0 1
H	 3.889604	 0.356866	 -0.089510
N	 3.091268	 -0.241216	 -0.065538
C	 1.860978	 0.530248	 0.016256
H	 3.192566	 -0.835836	 0.730398
C	 0.644130	 -0.381765	 -0.031064
H	 1.835721	 1.204666	 -0.833114
H	 1.808789	 1.151975	 0.911067
C	 -0.678115	 0.376691	 0.025731
H	 0.693998	 -0.977147	 -0.936845
H	 0.693309	 -1.082142	 0.800523
C	 -0.703550	 1.614709	 -0.866383
H	 -0.878420	 0.673611	 1.052703
H	 -1.490472	 -0.286683	 -0.262163
C	 -2.024718	 2.373675	 -0.801891
H	 0.107607	 2.278561	 -0.580696
H	 -0.507427	 1.320264	 -1.893811
H	 -2.232691	 2.712275	 0.207731
H	 -2.009061	 3.245571	 -1.445752
H	 -2.852584	 1.746207	 -1.115353

12 8 5 9 F
