%nprocshared=4
%mem=2GB
#HF/cc-pVTZ nosymm scf=tight opt=ModRedundant

Mol

0 1
H	 3.721907	 -0.933076	 -0.066039
O	 2.824271	 -1.154299	 0.131461
C	 2.076458	 -0.067370	 -0.038225
C	 0.626018	 -0.337582	 0.258241
O	 2.538288	 0.965419	 -0.381593
C	 -0.267326	 0.883135	 0.076490
H	 0.325620	 -1.161483	 -0.378003
H	 0.574537	 -0.713685	 1.275261
C	 -1.726822	 0.642622	 0.463839
H	 -0.210803	 1.217591	 -0.953497
H	 0.129920	 1.693110	 0.675679
C	 -2.052217	 0.872679	 1.938706
H	 -1.976953	 -0.383490	 0.211287
H	 -2.372277	 1.268755	 -0.148363
C	 -3.494154	 0.516848	 2.286095
H	 -1.377680	 0.278408	 2.549342
H	 -1.872493	 1.909406	 2.204888
H	 -3.698164	 0.686774	 3.336898
H	 -3.701766	 -0.526277	 2.072821
H	 -4.193725	 1.115775	 1.712473

12 9 6 10 F
