%nprocshared=4
%mem=2GB
#HF/6-31G* nosymm scf=tight opt=ModRedundant

Mol

0 1
H	 -3.420663	 1.227371	 -1.044276
O	 -3.452007	 0.283848	 -0.965577
C	 -3.181085	 -0.079926	 0.364119
C	 -1.765924	 0.277073	 0.805136
H	 -3.327791	 -1.152017	 0.410903
H	 -3.905698	 0.375695	 1.036898
C	 -1.460264	 1.773222	 0.723710
H	 -1.613342	 -0.074132	 1.826085
H	 -1.063976	 -0.278633	 0.185717
C	 -0.045513	 2.123186	 1.189740
H	 -2.187255	 2.318477	 1.317757
H	 -1.594364	 2.106768	 -0.303985
C	 0.255057	 3.621734	 1.099757
H	 0.085080	 1.778853	 2.212872
H	 0.679562	 1.575958	 0.588565
C	 1.690147	 4.011741	 1.472003
H	 -0.440823	 4.166872	 1.735580
H	 0.059976	 3.955132	 0.082601
C	 2.054505	 3.771177	 2.938214
H	 1.829454	 5.066450	 1.247342
H	 2.386621	 3.471811	 0.833565
H	 1.366581	 4.289358	 3.601077
H	 3.054817	 4.135423	 3.151611
H	 2.031121	 2.717361	 3.195293

7 4 3 2 F
