%nprocshared=1
%mem=2GB
#HF/6-31G* nosymm scf=tight 

Mol

0 1
O	 -2.439739	 -0.935931	 -0.423848
C	 -1.921153	 0.064240	 -0.045697
C	 -2.624470	 1.379923	 0.150949
O	 -0.632575	 0.154573	 0.251549
H	 -2.168117	 2.136577	 -0.476876
H	 -3.669540	 1.273223	 -0.098610
H	 -2.519365	 1.700893	 1.180846
C	 0.160891	 -1.019931	 0.106212
C	 1.589627	 -0.672828	 0.480843
H	 0.089836	 -1.367806	 -0.916050
H	 -0.238459	 -1.792301	 0.749618
C	 1.982489	 -1.101768	 1.895788
H	 1.700649	 0.405059	 0.382021
H	 2.262202	 -1.124442	 -0.243689
C	 3.417521	 -0.713182	 2.248894
H	 1.298715	 -0.648271	 2.610556
H	 1.862535	 -2.175922	 1.991521
H	 3.672022	 -1.028787	 3.255698
H	 3.559379	 0.362509	 2.193734
H	 4.127296	 -1.175083	 1.568493

16 12 9 8 F
2 4 8 10 F
1 2 4 8 F
