%nprocshared=1
%mem=2GB
#HF/6-31G* nosymm scf=tight opt=ModRedundant

Mol

0 1
H	 0.871472	 0.849136	 -3.856591
O	 1.755115	 0.532415	 -3.974639
C	 2.439986	 0.571604	 -2.748479
C	 1.984249	 -0.505869	 -1.770685
H	 3.485120	 0.427219	 -2.990392
H	 2.347137	 1.556124	 -2.291445
C	 0.526734	 -0.365448	 -1.324815
H	 2.131914	 -1.477521	 -2.234855
H	 2.634493	 -0.468925	 -0.898226
C	 0.115918	 -1.429151	 -0.302766
H	 -0.120607	 -0.429246	 -2.195013
H	 0.374121	 0.623396	 -0.892105
C	 -1.309753	 -1.282496	 0.241564
H	 0.231716	 -2.416096	 -0.747039
H	 0.809666	 -1.390841	 0.534460
C	 -2.037799	 -0.007733	 -0.193645
H	 -1.890610	 -2.142323	 -0.085726
H	 -1.285946	 -1.330893	 1.329189
C	 -3.489788	 0.042957	 0.286558
H	 -2.017067	 0.064384	 -1.280144
H	 -1.513726	 0.868678	 0.179924
C	 -4.216917	 1.317354	 -0.141063
H	 -4.025645	 -0.823308	 -0.095450
H	 -3.513059	 -0.038752	 1.371301
H	 -4.239342	 1.411634	 -1.223113
H	 -5.243387	 1.322503	 0.212445
H	 -3.726170	 2.201406	 0.256408

14 10 13 16 F
