%nprocshared=4
%mem=2GB
#HF/cc-pVTZ nosymm scf=tight opt=ModRedundant

Mol

0 1
H	 -3.436473	 1.252944	 -1.023892
O	 -3.458596	 0.315260	 -0.960865
C	 -3.176635	 -0.080824	 0.355601
C	 -1.763371	 0.265266	 0.799691
H	 -3.321825	 -1.153438	 0.379502
H	 -3.895468	 0.357385	 1.043382
C	 -0.673390	 -0.426948	 -0.013392
H	 -1.631049	 1.344913	 0.747560
H	 -1.664587	 -0.001624	 1.849167
C	 0.737842	 -0.043159	 0.423759
H	 -0.806103	 -0.190518	 -1.063345
H	 -0.797221	 -1.503753	 0.074146
C	 1.568517	 0.558062	 -0.708301
H	 0.672023	 0.659455	 1.248921
H	 1.247429	 -0.922669	 0.811883
C	 1.912395	 -0.412104	 -1.839838
H	 2.488035	 0.969659	 -0.298518
H	 1.023467	 1.398297	 -1.129664
C	 2.845503	 -1.552917	 -1.441088
H	 2.376062	 0.150266	 -2.644529
H	 0.994130	 -0.824622	 -2.249762
H	 3.770674	 -1.170334	 -1.021845
H	 3.100631	 -2.159746	 -2.302430
H	 2.394839	 -2.207499	 -0.704862

13 10 7 11 F
