%nprocshared=4
%mem=2GB
#HF/cc-pVTZ nosymm scf=tight opt=ModRedundant

Mol

0 1
O	 -4.741559	 3.677983	 3.374923
C	 -3.562142	 3.759984	 3.486103
C	 -2.630085	 2.634875	 3.084568
C	 -2.907686	 5.004973	 4.041002
C	 -2.930863	 2.021940	 1.724174
H	 -1.614819	 3.023858	 3.116108
H	 -2.673335	 1.879345	 3.865793
C	 -1.884114	 0.996142	 1.298539
H	 -2.994627	 2.811929	 0.984602
H	 -3.910645	 1.558903	 1.751699
C	 -2.173911	 0.374057	 -0.064309
H	 -0.903751	 1.466922	 1.275503
H	 -1.824239	 0.207992	 2.045866
C	 -2.363502	 1.404152	 -1.174127
H	 -3.065241	 -0.244529	 0.006379
H	 -1.360815	 -0.296045	 -0.332573
C	 -3.702326	 2.130226	 -1.095661
H	 -1.557015	 2.131222	 -1.130682
H	 -2.277312	 0.912060	 -2.139184
H	 -3.804741	 2.661432	 -0.155250
H	 -3.804860	 2.853493	 -1.896530
H	 -4.530341	 1.433312	 -1.171465
H	 -2.221465	 5.423139	 3.312795
H	 -3.662109	 5.735040	 4.290482
H	 -2.329392	 4.760820	 4.925313

9 5 3 6 F
