%nprocshared=4
%mem=2GB
#HF/cc-pVTZ nosymm scf=tight opt=ModRedundant

Mol

0 1
O	 2.893215	 -1.596063	 -1.058885
C	 2.574127	 -2.072921	 -0.023620
C	 3.511862	 -2.450995	 1.094431
O	 1.317782	 -2.342573	 0.292610
C	 4.974491	 -2.157848	 0.784534
H	 3.171376	 -1.928256	 1.980075
H	 3.359355	 -3.506723	 1.295706
C	 5.240598	 -0.709527	 0.371748
H	 5.317359	 -2.830475	 0.006020
H	 5.566106	 -2.390727	 1.661328
C	 4.593603	 0.347690	 1.265112
H	 4.874796	 -0.576716	 -0.642015
H	 6.313773	 -0.537034	 0.329068
C	 4.832888	 0.099833	 2.752087
H	 4.983560	 1.327125	 0.997696
H	 3.523316	 0.385889	 1.084657
C	 4.113634	 -1.135748	 3.285741
H	 4.512869	 0.971878	 3.317300
H	 5.900618	 -0.002703	 2.931823
C	 4.356067	 -1.375630	 4.772166
H	 3.046597	 -1.034660	 3.107043
H	 4.434478	 -2.008690	 2.723702
H	 3.832216	 -2.259209	 5.118364
H	 4.013063	 -0.534417	 5.365307
H	 5.411989	 -1.515122	 4.979000
C	 0.824678	 -3.623490	 -0.043565
H	 -0.139967	 -3.792406	 0.411591
H	 1.544729	 -4.329140	 0.337866
H	 0.731980	 -3.727573	 -1.114467

1 2 4 26 F
