%nprocshared=4
%mem=2GB
#HF/cc-pVTZ nosymm scf=tight opt=ModRedundant

Mol

0 1
H	 -3.162190	 0.493205	 -0.000107
C	 -2.363908	 -0.234727	 0.000005
O	 -1.158738	 0.454634	 -0.000087
H	 -2.464314	 -0.863616	 -0.882153
H	 -2.464327	 -0.863359	 0.882345
C	 -1.287716	 1.841528	 0.014293
C	 0.090697	 2.471105	 0.012597
H	 -1.843402	 2.156191	 0.897944
H	 -1.853460	 2.173449	 -0.856571
C	 0.035047	 3.994594	 0.027886
H	 0.637089	 2.108567	 0.876280
H	 0.627080	 2.125728	 -0.864306
H	 -0.477076	 4.362692	 0.910678
H	 1.032098	 4.417570	 0.026472
H	 -0.486881	 4.379976	 -0.841677

6 3 2 4 F
