%nprocshared=4
%mem=2GB
#HF/cc-pVTZ nosymm scf=tight opt=ModRedundant

Mol

0 1
H	 -3.436473	 1.252944	 -1.023892
O	 -3.458596	 0.315260	 -0.960865
C	 -3.176635	 -0.080824	 0.355601
C	 -1.763371	 0.265266	 0.799691
H	 -3.321825	 -1.153438	 0.379502
H	 -3.895468	 0.357385	 1.043382
C	 -0.673390	 -0.426948	 -0.013392
H	 -1.631049	 1.344913	 0.747560
H	 -1.664587	 -0.001624	 1.849167
C	 0.737842	 -0.043159	 0.423759
H	 -0.806103	 -0.190518	 -1.063345
H	 -0.797221	 -1.503753	 0.074146
C	 0.751958	 0.993042	 1.545871
H	 1.264489	 -0.938671	 0.739339
H	 1.286540	 0.348431	 -0.430316
C	 0.227468	 2.375092	 1.152557
H	 1.764569	 1.091113	 1.930385
H	 0.151131	 0.619228	 2.370426
C	 1.087651	 3.117911	 0.133023
H	 0.151920	 2.981283	 2.050109
H	 -0.784342	 2.278240	 0.767484
H	 2.107579	 3.224558	 0.488620
H	 0.696466	 4.112636	 -0.047914
H	 1.121986	 2.604263	 -0.820178

13 10 7 11 F
