%nprocshared=4
%mem=2GB
#HF/6-31G* nosymm scf=tight opt=ModRedundant

Mol

0 1
H	 -0.751228	 -1.299806	 -0.756605
N	 -0.626943	 -0.667432	 -0.000092
C	 -1.625401	 -0.646719	 1.044595
C	 0.469286	 0.129090	 0.000148
H	 -2.599482	 -0.383834	 0.645769
H	 -1.334826	 0.091931	 1.773765
H	 -1.698246	 -1.613165	 1.532148
C	 1.788933	 -0.616240	 -0.000037
O	 0.411098	 1.327768	 -0.000049
H	 1.872803	 -1.245775	 -0.880381
H	 2.595421	 0.101576	 0.003713
H	 1.870096	 -1.252171	 0.875943

3 2 4 9 F
