%nprocshared=4
%mem=2GB
#HF/cc-pVTZ nosymm scf=tight opt=ModRedundant

Mol

0 1
H	 7.219890	 -4.982772	 0.599423
O	 6.407847	 -4.915423	 1.066199
C	 6.149314	 -3.577220	 1.400332
C	 5.745565	 -2.721724	 0.208778
H	 5.340400	 -3.602933	 2.117950
H	 7.010105	 -3.137981	 1.900891
C	 4.677968	 -3.351943	 -0.682798
H	 5.395507	 -1.761548	 0.575763
H	 6.638237	 -2.527923	 -0.381116
C	 5.184832	 -4.583852	 -1.431348
H	 4.326103	 -2.614742	 -1.396751
H	 3.820072	 -3.632513	 -0.074044
C	 4.135142	 -5.299635	 -2.283439
H	 6.024249	 -4.298660	 -2.060848
H	 5.578127	 -5.290693	 -0.705977
C	 3.009841	 -5.968591	 -1.496077
H	 3.696849	 -4.575015	 -2.964140
H	 4.626454	 -6.041442	 -2.909131
C	 3.483501	 -7.168232	 -0.679428
H	 2.232670	 -6.290386	 -2.185947
H	 2.544531	 -5.251364	 -0.826693
C	 4.787405	 -7.768073	 -1.195101
H	 3.610487	 -6.868801	 0.357294
H	 2.710250	 -7.931867	 -0.682378
H	 5.589371	 -7.037552	 -1.174452
H	 5.096164	 -8.614511	 -0.592342
H	 4.682460	 -8.112344	 -2.218729

20 16 19 22 F
