%nprocshared=1
%mem=2GB
#HF/6-31G* nosymm scf=tight opt=ModRedundant

Mol

0 1
H	 -0.523538	 0.859076	 4.530027
C	 -1.164125	 0.071569	 4.113970
C	 -1.810976	 0.407160	 2.794283
O	 -1.306888	 -0.953054	 4.698366
C	 -0.796437	 0.885086	 1.746165
H	 -2.359014	 -0.462599	 2.450945
H	 -2.531175	 1.202109	 2.984086
C	 0.183211	 -0.204735	 1.303585
H	 -1.341938	 1.252380	 0.881984
H	 -0.244382	 1.737095	 2.139959
C	 1.180775	 0.282413	 0.250794
H	 -0.378239	 -1.048984	 0.908787
H	 0.728528	 -0.583214	 2.166094
C	 2.148627	 -0.814315	 -0.201312
H	 0.630545	 0.668635	 -0.603497
H	 1.749456	 1.119721	 0.653163
C	 3.580890	 -0.659131	 0.322722
H	 2.166869	 -0.852443	 -1.289387
H	 1.762857	 -1.776509	 0.128956
C	 4.324889	 0.564933	 -0.213704
H	 4.142010	 -1.551473	 0.056605
H	 3.564836	 -0.624694	 1.410140
H	 4.342616	 0.565491	 -1.300421
H	 3.866655	 1.493402	 0.110242
H	 5.353900	 0.572371	 0.132816

8 11 14 18 F
