%nprocshared=4
%mem=2GB
#HF/6-31G* nosymm scf=tight opt=ModRedundant

Mol

0 1
H	 1.965324	 3.464140	 3.538673
C	 1.677461	 2.577766	 4.117550
C	 0.367448	 1.950627	 3.713601
O	 2.379589	 2.180129	 4.989703
C	 0.294607	 1.657273	 2.208645
H	 0.222338	 1.052238	 4.302285
H	 -0.419826	 2.654946	 3.979663
C	 1.272405	 0.572339	 1.750248
H	 -0.719697	 1.354648	 1.965973
H	 0.477680	 2.575310	 1.652363
C	 1.180775	 0.282413	 0.250794
H	 1.078487	 -0.340757	 2.309262
H	 2.291092	 0.865405	 1.997084
C	 2.148627	 -0.814315	 -0.201312
H	 0.159248	 0.000430	 0.008512
H	 1.387091	 1.195417	 -0.306200
C	 3.580890	 -0.659131	 0.322722
H	 2.166869	 -0.852443	 -1.289387
H	 1.762857	 -1.776509	 0.128956
C	 4.324889	 0.564933	 -0.213704
H	 4.142010	 -1.551473	 0.056605
H	 3.564836	 -0.624694	 1.410140
H	 4.342616	 0.565491	 -1.300421
H	 3.866655	 1.493402	 0.110242
H	 5.353900	 0.572371	 0.132816

8 11 14 18 F
