%nprocshared=1
%mem=2GB
#HF/6-31G* nosymm scf=tight 

Mol

0 1
O	 -2.439739	 -0.935931	 -0.423848
C	 -1.921153	 0.064240	 -0.045697
C	 -2.624470	 1.379923	 0.150949
O	 -0.632575	 0.154573	 0.251549
H	 -2.168117	 2.136577	 -0.476876
H	 -3.669540	 1.273223	 -0.098610
H	 -2.519365	 1.700893	 1.180846
C	 0.160891	 -1.019931	 0.106212
C	 1.589627	 -0.672828	 0.480843
H	 0.089836	 -1.367806	 -0.916050
H	 -0.238459	 -1.792301	 0.749618
C	 1.751280	 -0.174084	 1.918035
H	 1.932259	 0.092934	 -0.212082
H	 2.217068	 -1.545281	 0.318356
C	 3.196814	 0.191310	 2.252578
H	 1.114235	 0.695010	 2.069532
H	 1.401020	 -0.937882	 2.604540
H	 3.285289	 0.540816	 3.276321
H	 3.564959	 0.979027	 1.601234
H	 3.854229	 -0.665884	 2.138111

16 12 9 8 F
2 4 8 10 F
1 2 4 8 F
