%nprocshared=4
%mem=2GB
#HF/cc-pVTZ nosymm scf=tight opt=ModRedundant

Mol

0 1
O	 0.623971	 1.347241	 -0.000777
C	 0.485107	 0.171416	 -0.000134
C	 1.606966	 -0.836201	 0.000174
O	 -0.695554	 -0.422406	 0.000602
C	 2.988788	 -0.202529	 -0.000115
H	 1.465110	 -1.474645	 -0.864821
H	 1.465209	 -1.474077	 0.865596
H	 3.131767	 0.419673	 -0.873407
H	 3.750876	 -0.972315	 0.000098
H	 3.131883	 0.420264	 0.872742
C	 -0.798653	 -1.692008	 0.629703
C	 -2.230551	 -2.156256	 0.500743
H	 -0.503731	 -1.597797	 1.665315
H	 -0.114128	 -2.379116	 0.152595
H	 -2.906606	 -1.460159	 0.981129
H	 -2.344492	 -3.125366	 0.971992
H	 -2.514781	 -2.245996	 -0.540185

11 4 2 3 F
