%nprocshared=4
%mem=2GB
#HF/cc-pVTZ nosymm scf=tight 
prop=(read,field)

Mol

0 1
H	 2.462321	 -2.217123	 0.000000
O	 2.777308	 -1.330836	 -0.000000
C	 1.763124	 -0.447653	 0.000000
C	 2.088794	 0.901072	 -0.000000
C	 0.441023	 -0.838047	 0.000000
H	 3.123097	 1.182805	 -0.000000
C	 1.092753	 1.850416	 0.000000
H	 0.161188	 -1.870999	 0.000000
C	 -0.532198	 0.141550	 0.000000
H	 1.353892	 2.890394	 -0.000000
C	 -0.242505	 1.482952	 0.000000
N	 -1.937205	 -0.281244	 0.000000
H	 -1.026200	 2.208586	 0.000000
O	 -2.159706	 -1.446391	 -0.000000
O	 -2.765142	 0.565643	 -0.000000

@grid.dat /N
