%nprocshared=4
%mem=2GB
#HF/cc-pVTZ nosymm scf=tight opt=ModRedundant

Mol

0 1
H	 2.867672	 -0.456275	 0.875795
C	 2.403497	 -0.020426	 0.000000
N	 0.989899	 -0.304564	 0.000000
H	 2.867672	 -0.456275	 -0.875795
H	 2.620366	 1.051270	 0.000000
C	 0.183622	 0.898550	 0.000000
C	 0.601334	 -1.179587	 1.086702
H	 0.370636	 1.505052	 0.891586
H	 0.439661	 1.499379	 -0.864972
C	 -1.288574	 0.538331	 -0.055888
H	 1.163862	 -2.103555	 1.019079
H	 0.819767	 -0.729392	 2.060024
C	 -0.881594	 -1.486409	 1.002892
H	 -1.899837	 1.425163	 0.036381
H	 -1.510838	 0.063785	 -1.009568
O	 -1.639932	 -0.313383	 0.994004
H	 -1.198677	 -2.063137	 1.860488
H	 -1.082798	 -2.065730	 0.104001

6 3 2 5 F
