%nprocshared=4
%mem=2GB
#HF/cc-pVTZ nosymm scf=tight opt=ModRedundant

Mol

0 1
O	 -2.503981	 1.070980	 -0.325676
C	 -2.132486	 0.005156	 0.045057
C	 -0.908585	 -0.651175	 -0.562680
C	 -2.843431	 -0.741425	 1.148660
C	 0.376695	 -0.140025	 0.100361
H	 -0.895285	 -0.406691	 -1.617271
H	 -0.971331	 -1.729598	 -0.463016
C	 1.630207	 -0.772146	 -0.501001
H	 0.407501	 0.937167	 -0.004217
H	 0.347720	 -0.350521	 1.166734
C	 2.907848	 -0.545876	 0.309149
H	 1.772784	 -0.391628	 -1.509394
H	 1.468529	 -1.842059	 -0.599744
C	 3.373802	 0.906639	 0.372125
H	 3.699140	 -1.146831	 -0.127906
H	 2.764321	 -0.923458	 1.318191
H	 3.519798	 1.311927	 -0.623875
H	 4.316899	 0.983758	 0.900700
H	 2.661122	 1.540651	 0.885346
H	 -3.311252	 -1.629110	 0.734948
H	 -3.597239	 -0.112912	 1.597342
H	 -2.138304	 -1.073007	 1.902609

3 5 8 12 F
