%nprocshared=1
%mem=2GB
#HF/6-31G* nosymm scf=tight 

Mol

0 1
O	 2.862325	 1.357334	 0.000267
C	 2.843464	 0.164689	 -0.000222
C	 1.546494	 -0.624492	 -0.000609
C	 4.124123	 -0.644674	 -0.000428
C	 0.291004	 0.242674	 0.000989
H	 1.557904	 -1.283758	 -0.867573
H	 1.558622	 -1.285963	 0.864672
C	 0.367218	 1.382772	 1.017911
H	 -0.572118	 -0.381411	 0.209957
H	 0.135820	 0.645825	 -0.994770
C	 -0.887006	 2.258285	 1.029326
H	 0.526375	 0.971609	 2.013733
H	 1.235861	 2.003708	 0.803518
C	 -0.818478	 3.400897	 2.044094
H	 -1.755894	 1.638719	 1.244247
H	 -1.046611	 2.670545	 0.034557
C	 -2.075011	 4.270826	 2.049726
H	 -0.660147	 2.989963	 3.039025
H	 0.048833	 4.021801	 1.829365
H	 -2.956305	 3.684867	 2.294926
H	 -1.996658	 5.071129	 2.779162
H	 -2.241681	 4.724955	 1.077033
H	 4.165367	 -1.288615	 -0.874074
H	 4.976217	 0.020734	 -0.001915
H	 4.166763	 -1.286207	 0.874930

9 5 8 12 F
15 11 8 12 F
15 11 14 18 F
1 2 3 6 F
