%nprocshared=4
%mem=2GB
#HF/cc-pVTZ nosymm scf=tight opt=ModRedundant

Mol

0 1
O	 -0.668008	 -0.091203	 0.056469
C	 0.485107	 0.171416	 -0.000134
C	 1.606966	 -0.836201	 0.000174
O	 0.947793	 1.407238	 -0.072600
C	 2.988788	 -0.202529	 -0.000115
H	 1.465110	 -1.474645	 -0.864821
H	 1.465209	 -1.474077	 0.865596
H	 3.131767	 0.419673	 -0.873407
H	 3.750876	 -0.972315	 0.000098
H	 3.131883	 0.420264	 0.872742
C	 0.003906	 2.468966	 -0.082561
C	 0.770895	 3.767804	 -0.167625
H	 -0.593236	 2.418873	 0.817027
H	 -0.659490	 2.343746	 -0.926687
H	 1.432308	 3.881682	 0.682044
H	 0.078471	 4.601285	 -0.177182
H	 1.365625	 3.806176	 -1.071614

4 2 3 6 F
