%nprocshared=1
%mem=2GB
#HF/6-31G* nosymm scf=tight 

Mol

0 1
O	 -2.821601	 1.309235	 -0.001213
C	 -2.668563	 0.129746	 -0.000350
C	 -3.801572	 -0.864014	 -0.000442
O	 -1.481751	 -0.454642	 0.000584
H	 -4.417280	 -0.689587	 -0.874708
H	 -3.443784	 -1.883046	 -0.000565
H	 -4.417179	 -0.689832	 0.873954
C	 -0.334255	 0.388708	 0.000906
C	 0.891947	 -0.504646	 0.000751
H	 -0.365390	 1.025305	 -0.873475
H	 -0.365484	 1.024911	 0.875569
C	 2.191998	 0.301789	 0.000897
H	 0.855148	 -1.151283	 -0.871571
H	 0.855132	 -1.151660	 0.872805
C	 2.405767	 1.087437	 1.296036
H	 3.035770	 -0.368280	 -0.154482
H	 2.191789	 0.992401	 -0.840611
C	 3.704929	 1.891827	 1.296662
H	 2.406603	 0.398787	 2.137960
H	 1.564605	 1.759219	 1.451680
H	 4.567966	 1.243169	 1.176563
H	 3.828275	 2.437252	 2.227003
H	 3.719503	 2.614039	 0.485362

13 9 8 10 F
2 4 8 10 F
19 15 12 16 F
1 2 4 8 F
