%nprocshared=1
%mem=2GB
#HF/6-31G* nosymm scf=tight 

Mol

0 1
H	 -2.698709	 -0.000305	 0.034435
C	 -1.693833	 0.000034	 0.434417
O	 -0.828952	 -0.000968	 -0.659236
H	 -1.574200	 0.882896	 1.055746
H	 -1.574147	 -0.881698	 1.057355
C	 0.212903	 0.946508	 -0.695736
C	 -0.303769	 2.381903	 -0.770626
C	 1.221972	 0.750930	 0.434081
H	 0.714379	 0.725242	 -1.630399
H	 -1.053584	 2.471666	 -1.549259
H	 0.512393	 3.058333	 -1.004202
H	 -0.741489	 2.710588	 0.166673
H	 1.527633	 -0.288266	 0.489767
H	 2.104626	 1.356158	 0.252183
H	 0.820081	 1.042487	 1.399129

9 6 3 2 F
