%nprocshared=4
%mem=2GB
#HF/cc-pVTZ nosymm scf=tight opt=ModRedundant

Mol

0 1
H	 6.830139	 -7.991321	 -3.594019
O	 6.919685	 -7.395448	 -2.873778
C	 7.556133	 -6.217560	 -3.294236
C	 6.675232	 -5.327428	 -4.158160
H	 7.827727	 -5.689654	 -2.390061
H	 8.479708	 -6.452184	 -3.819984
C	 5.271007	 -5.104433	 -3.601137
H	 7.173041	 -4.371253	 -4.288820
H	 6.603387	 -5.783177	 -5.142807
C	 4.420318	 -6.373650	 -3.617105
H	 4.775496	 -4.330091	 -4.177215
H	 5.343237	 -4.736398	 -2.579071
C	 3.027537	 -6.225971	 -3.001794
H	 4.324593	 -6.726284	 -4.641172
H	 4.952693	 -7.152575	 -3.078291
C	 3.009841	 -5.968591	 -1.496077
H	 2.520871	 -5.403234	 -3.498705
H	 2.442429	 -7.116268	 -3.221286
C	 3.483501	 -7.168232	 -0.679428
H	 1.999886	 -5.704359	 -1.190069
H	 3.634113	 -5.113278	 -1.255810
C	 4.787405	 -7.768073	 -1.195101
H	 3.610487	 -6.868801	 0.357294
H	 2.710250	 -7.931867	 -0.682378
H	 5.589371	 -7.037552	 -1.174452
H	 5.096164	 -8.614511	 -0.592342
H	 4.682460	 -8.112344	 -2.218729

20 16 19 22 F
