%nprocshared=4
%mem=2GB
#HF/cc-pVTZ nosymm scf=tight opt=ModRedundant

Mol

0 1
H	 2.867672	 -0.456275	 0.875795
C	 2.403497	 -0.020426	 0.000000
N	 0.989899	 -0.304564	 0.000000
H	 2.867672	 -0.456275	 -0.875795
H	 2.620366	 1.051270	 0.000000
C	 0.357164	 0.035172	 1.257693
C	 0.701263	 -1.676734	 -0.362501
H	 0.781600	 -0.539510	 2.086752
H	 0.522864	 1.085437	 1.467966
C	 -1.133556	 -0.232892	 1.179339
H	 1.119440	 -1.882551	 -1.341017
H	 1.151580	 -2.380177	 0.344696
C	 -0.798298	 -1.900812	 -0.399226
H	 -1.599379	 -0.069625	 2.141097
H	 -1.587064	 0.443017	 0.457136
O	 -1.389789	 -1.557853	 0.818831
H	 -1.021785	 -2.943183	 -0.578514
H	 -1.234458	 -1.311214	 -1.203115

6 3 2 5 F
