%nprocshared=4
%mem=2GB
#HF/cc-pVTZ nosymm scf=tight opt=ModRedundant

Mol

0 1
H	 0.010068	 -0.302909	 -0.667226
N	 -0.625934	 -0.663929	 -0.000707
C	 -1.978635	 -0.158664	 0.001017
C	 -0.178721	 -1.606620	 0.858312
H	 -2.519057	 -0.493535	 -0.876362
H	 -1.938890	 0.917202	 -0.004137
H	 -2.514266	 -0.485137	 0.884506
C	 1.273091	 -1.989789	 0.673262
O	 -0.866662	 -2.109269	 1.696857
H	 1.912884	 -1.126225	 0.812982
H	 1.529677	 -2.747215	 1.395436
H	 1.439473	 -2.373053	 -0.326760

4 2 3 5 F
