%nprocshared=4
%mem=2GB
#HF/cc-pVTZ nosymm scf=tight opt=ModRedundant

Mol

0 1
H	 0.365242	 -2.285204	 0.774804
C	 -0.444565	 -1.577700	 0.962152
N	 -0.537714	 -0.645117	 0.000000
O	 -1.140819	 -1.662163	 1.923825
C	 -1.522613	 0.412524	 0.000000
H	 0.110504	 -0.695247	 -0.746515
H	 -2.150256	 0.356137	 -0.880771
H	 -1.005621	 1.357208	 0.000000
H	 -2.150256	 0.356137	 0.880771

6 3 5 7 F
