%nprocshared=4
%mem=2GB
#HF/cc-pVTZ nosymm scf=tight opt=ModRedundant

Mol

0 1
H	 -3.436473	 1.252944	 -1.023892
O	 -3.458596	 0.315260	 -0.960865
C	 -3.176635	 -0.080824	 0.355601
C	 -1.763371	 0.265266	 0.799691
H	 -3.321825	 -1.153438	 0.379502
H	 -3.895468	 0.357385	 1.043382
C	 -0.673390	 -0.426948	 -0.013392
H	 -1.631049	 1.344913	 0.747560
H	 -1.664587	 -0.001624	 1.849167
C	 -1.185209	 -1.626982	 -0.805813
H	 0.122624	 -0.742784	 0.651832
H	 -0.230851	 0.293780	 -0.696924
C	 -2.463079	 -1.323769	 -1.585657
H	 -0.405963	 -1.958519	 -1.485334
H	 -1.370375	 -2.456201	 -0.126131
C	 -3.695296	 -1.050878	 -0.721353
H	 -2.675599	 -2.149774	 -2.260491
H	 -2.286742	 -0.456748	 -2.216370
C	 -4.188224	 -2.250438	 0.084391
H	 -4.499476	 -0.713003	 -1.367813
H	 -3.483841	 -0.225891	 -0.045999
H	 -4.402206	 -3.093658	 -0.564660
H	 -5.099608	 -2.006510	 0.618358
H	 -3.459286	 -2.574270	 0.817458

11 7 4 3 F
