%nprocshared=4
%mem=2GB
#HF/cc-pVTZ nosymm scf=tight opt=ModRedundant

Mol

0 1
H	 -2.498963	 -0.741158	 -0.729149
O	 -2.346257	 -0.289210	 0.080372
C	 -1.183935	 0.486039	 -0.009831
C	 0.062853	 -0.375310	 0.027457
H	 -1.178881	 1.094526	 -0.908634
H	 -1.184406	 1.155156	 0.838676
O	 -0.035742	 -1.330319	 -0.977376
H	 0.154790	 -0.854935	 1.003368
H	 0.941498	 0.250781	 -0.112426
C	 1.060860	 -2.177643	 -1.080950
H	 1.213895	 -2.743412	 -0.164566
H	 0.870070	 -2.868808	 -1.888772
H	 1.971086	 -1.624427	 -1.299952

8 4 3 5 F
