%nprocshared=4
%mem=2GB
#HF/cc-pVTZ nosymm scf=tight opt=ModRedundant

Mol

0 1
H	 -3.162190	 0.493205	 -0.000107
C	 -2.363908	 -0.234727	 0.000005
O	 -1.158738	 0.454634	 -0.000087
H	 -2.464314	 -0.863616	 -0.882153
H	 -2.464327	 -0.863359	 0.882345
C	 -0.028611	 -0.359694	 0.000037
C	 1.212847	 0.509314	 -0.000053
H	 -0.034155	 -1.007047	 -0.877198
H	 -0.034195	 -1.006836	 0.877430
C	 1.593456	 0.980866	 -1.399026
H	 1.037743	 1.361878	 0.646784
H	 2.028797	 -0.054002	 0.439098
H	 0.799279	 1.568006	 -1.848066
H	 2.482353	 1.598951	 -1.369797
H	 1.797244	 0.142687	 -2.057050

11 7 6 8 F
