%nprocshared=4
%mem=2GB
#HF/cc-pVTZ nosymm scf=tight opt=ModRedundant

Mol

0 1
H	 2.421347	 -1.587156	 -0.933404
N	 1.441837	 -1.404824	 -0.948374
C	 1.187370	 0.015581	 -1.080803
C	 0.800851	 -1.953253	 0.229848
H	 1.660190	 0.377255	 -1.985781
H	 1.586846	 0.588009	 -0.241538
C	 -0.309564	 0.253778	 -1.161575
H	 0.993589	 -3.018241	 0.274597
H	 1.175906	 -1.505217	 1.151920
C	 -0.695578	 -1.712477	 0.147358
H	 -0.690274	 -0.187399	 -2.087325
H	 -0.504520	 1.318924	 -1.201246
N	 -0.976577	 -0.298712	 -0.000000
H	 -1.169645	 -2.069055	 1.054128
H	 -1.102880	 -2.289112	 -0.688218
C	 -2.391156	 -0.021003	 -0.000000
H	 -2.853954	 -0.458728	 -0.875714
H	 -2.853954	 -0.458728	 0.875714
H	 -2.614037	 1.049773	 -0.000000

7 13 16 19 F
