%nprocshared=4
%mem=2GB
#HF/cc-pVTZ nosymm scf=tight opt=ModRedundant

Mol

0 1
H	 -7.673705	 5.473683	 -1.069950
C	 -6.697361	 5.297047	 -0.598320
C	 -5.531469	 5.947220	 -1.292483
O	 -6.622548	 4.629697	 0.374488
C	 -4.342303	 4.998298	 -1.468856
H	 -5.871672	 6.341335	 -2.241308
H	 -5.229244	 6.787058	 -0.670682
C	 -4.612462	 3.851277	 -2.440215
H	 -3.492825	 5.574588	 -1.819024
H	 -4.055605	 4.596713	 -0.499976
C	 -5.641798	 2.853761	 -1.915610
H	 -3.679343	 3.333562	 -2.646051
H	 -4.951762	 4.248350	 -3.393439
C	 -6.900381	 3.527547	 -1.372262
H	 -5.903137	 2.165778	 -2.713560
H	 -5.190500	 2.252776	 -1.129196
C	 -7.827821	 4.111512	 -2.439380
H	 -6.614724	 4.314215	 -0.677756
H	 -7.459838	 2.800038	 -0.790848
C	 -7.244121	 5.287623	 -3.218572
H	 -8.743922	 4.435874	 -1.955707
H	 -8.114795	 3.326049	 -3.133643
H	 -6.941812	 6.086551	 -2.549005
H	 -6.377675	 4.999038	 -3.801388
H	 -7.976863	 5.694192	 -3.906144

8 11 14 18 F
