%nprocshared=1
%mem=2GB
#HF/6-31G* nosymm scf=tight 

Mol

0 1
O	 -0.682937	 1.318834	 -0.186099
C	 -0.860635	 0.152188	 -0.042321
C	 -2.173363	 -0.477127	 0.338347
O	 0.083258	 -0.765189	 -0.202595
H	 -2.477673	 -1.180929	 -0.427595
H	 -2.923125	 0.290956	 0.455536
H	 -2.058825	 -1.029004	 1.264191
C	 1.243796	 -0.695505	 0.622688
C	 1.010812	 -1.358486	 1.967613
H	 1.534626	 0.337404	 0.739557
H	 2.006902	 -1.215469	 0.061611
H	 1.931939	 -1.356799	 2.542288
H	 0.255873	 -0.827644	 2.533866
H	 0.693304	 -2.387199	 1.835879

10 8 4 2 F
