%nprocshared=4
%mem=2GB
#HF/cc-pVTZ nosymm scf=tight opt=ModRedundant

Mol

0 1
H	 -3.436473	 1.252944	 -1.023892
O	 -3.458596	 0.315260	 -0.960865
C	 -3.176635	 -0.080824	 0.355601
C	 -1.763371	 0.265266	 0.799691
H	 -3.321825	 -1.153438	 0.379502
H	 -3.895468	 0.357385	 1.043382
C	 -1.451709	 1.758465	 0.760370
H	 -1.606180	 -0.116532	 1.807355
H	 -1.067519	 -0.272447	 0.160127
C	 -0.041324	 2.090916	 1.240226
H	 -2.177024	 2.291035	 1.365515
H	 -1.580424	 2.119658	 -0.257214
C	 0.265915	 3.586403	 1.193615
H	 0.083286	 1.718135	 2.252350
H	 0.683427	 1.558594	 0.627670
C	 1.694952	 3.962666	 1.588745
H	 -0.433811	 4.116199	 1.835914
H	 0.081904	 3.946786	 0.185208
C	 2.044767	 3.694176	 3.050486
H	 1.839815	 5.019348	 1.385737
H	 2.395229	 3.433233	 0.947861
H	 1.356888	 4.206564	 3.715586
H	 3.044975	 4.045529	 3.277153
H	 2.009952	 2.637964	 3.288835

7 4 3 2 F
