%nprocshared=4
%mem=2GB
#HF/cc-pVTZ nosymm scf=tight opt=ModRedundant

Mol

0 1
O	 1.634987	 0.956902	 -1.688944
C	 0.781622	 1.719742	 -1.387478
C	 -0.260824	 1.491549	 -0.323112
O	 0.630629	 2.901797	 -1.962250
C	 0.303860	 0.951294	 0.982866
H	 -0.773775	 2.435253	 -0.168993
H	 -1.002185	 0.817429	 -0.739513
C	 1.442621	 1.811358	 1.522803
H	 0.650379	 -0.064385	 0.829260
H	 -0.491094	 0.889475	 1.717384
C	 2.741204	 1.647791	 0.738329
H	 1.145596	 2.857685	 1.507750
H	 1.621963	 1.562368	 2.566392
C	 3.879230	 2.507720	 1.277615
H	 2.563475	 1.897148	 -0.303972
H	 3.039684	 0.603367	 0.754070
H	 3.624195	 3.561749	 1.242782
H	 4.784858	 2.367969	 0.698787
H	 4.104442	 2.257472	 2.309066
C	 1.774850	 3.725117	 -2.063383
H	 2.168391	 3.953019	 -1.083894
H	 1.449161	 4.628457	 -2.553025
H	 2.542901	 3.240436	 -2.647673

1 2 4 20 F
