%nprocshared=1
%mem=2GB
#HF/6-31G* nosymm scf=tight opt=ModRedundant

Mol

0 1
O	 -0.434980	 -4.639932	 -1.557373
C	 0.006973	 -3.819796	 -2.303355
C	 0.179603	 -2.377373	 -1.860726
C	 0.445257	 -4.176644	 -3.706189
C	 1.444635	 -2.215080	 -1.002532
H	 -0.692148	 -2.106520	 -1.275070
H	 0.227552	 -1.716506	 -2.721529
C	 1.631333	 -0.777471	 -0.511575
H	 1.374422	 -2.898790	 -0.164084
H	 2.319114	 -2.513156	 -1.578886
C	 2.915987	 -0.544314	 0.291766
H	 0.772718	 -0.491400	 0.093131
H	 1.634471	 -0.110820	 -1.371467
C	 3.373361	 0.914346	 0.347591
H	 3.708709	 -1.142521	 -0.150311
H	 2.780642	 -0.921148	 1.303579
H	 3.506512	 1.320010	 -0.651625
H	 4.322697	 0.999599	 0.867103
H	 2.660624	 1.545032	 0.868198
H	 -0.202856	 -3.685631	 -4.427382
H	 0.394881	 -5.247114	 -3.848805
H	 1.456153	 -3.826424	 -3.893916

12 8 11 15 F
