%nprocshared=4
%mem=2GB
#HF/cc-pVTZ nosymm scf=tight opt=ModRedundant

Mol

0 1
H	 -2.171709	 0.882708	 0.500286
C	 -2.016894	 0.001719	 -0.114152
O	 -0.775228	 0.000056	 -0.739966
H	 -2.760846	 0.003757	 -0.898169
H	 -2.174774	 -0.879864	 0.498643
C	 0.287868	 0.759786	 -0.199672
C	 1.448883	 0.497005	 -1.152497
C	 -0.049693	 2.251966	 -0.190164
C	 0.650396	 0.279589	 1.206948
H	 1.187794	 0.812151	 -2.154804
H	 1.676398	 -0.561080	 -1.180717
H	 2.336585	 1.034204	 -0.840454
H	 -0.368671	 2.571546	 -1.174944
H	 0.822954	 2.829933	 0.089712
H	 -0.835123	 2.487554	 0.517056
H	 0.824323	 -0.789728	 1.206093
H	 1.553640	 0.771502	 1.547608
H	 -0.129105	 0.498853	 1.925884

6 3 2 5 F
