%nprocshared=4
%mem=2GB
#HF/cc-pVTZ nosymm scf=tight opt=ModRedundant

Mol

0 1
H	 -3.923984	 -1.304253	 1.198588
O	 -3.330493	 -1.128629	 0.492104
C	 -2.103685	 -0.669687	 0.994828
C	 -1.175688	 -0.398187	 -0.171891
H	 -2.246152	 0.239997	 1.574440
H	 -1.660967	 -1.412599	 1.655064
C	 0.196029	 0.106276	 0.266738
H	 -1.648362	 0.328549	 -0.825078
H	 -1.070599	 -1.312288	 -0.747472
C	 1.330220	 -0.826136	 -0.155230
H	 0.359542	 1.097229	 -0.145561
H	 0.212134	 0.218135	 1.348778
C	 2.719700	 -0.407669	 0.328325
H	 1.339388	 -0.911200	 -1.239363
H	 1.119001	 -1.821953	 0.224128
C	 3.241564	 0.893452	 -0.276737
H	 3.418299	 -1.204729	 0.093035
H	 2.711776	 -0.323368	 1.411960
H	 3.254204	 0.841071	 -1.360784
H	 2.634460	 1.745075	 0.005842
H	 4.254264	 1.092401	 0.054971

8 4 7 10 F
