%nprocshared=4
%mem=2GB
#HF/cc-pVTZ nosymm scf=tight opt=ModRedundant

Mol

0 1
H	 1.225346	 4.026353	 -1.957835
N	 0.454417	 3.396259	 -2.023163
C	 0.529141	 2.368753	 -0.996466
H	 0.481797	 2.991005	 -2.935505
C	 -0.690336	 1.460467	 -1.047626
H	 0.564995	 2.865425	 -0.032652
H	 1.432269	 1.761273	 -1.069162
C	 -0.678115	 0.376691	 0.025731
H	 -1.580958	 2.072500	 -0.949579
H	 -0.744181	 0.994021	 -2.029467
C	 -1.900706	 -0.535531	 -0.022488
H	 -0.620101	 0.842874	 1.006681
H	 0.220912	 -0.226690	 -0.077004
C	 -3.220513	 0.226854	 0.028039
H	 -1.865036	 -1.134397	 -0.928236
H	 -1.857948	 -1.236381	 0.806820
H	 -3.309098	 0.911849	 -0.808725
H	 -4.066838	 -0.449485	 -0.008086
H	 -3.301685	 0.809374	 0.939860

12 8 11 15 F
