%nprocshared=4
%mem=2GB
#HF/6-31G* nosymm scf=tight opt=ModRedundant

Mol

0 1
H	 2.591676	 2.013956	 0.335017
O	 3.341076	 1.666752	 -0.126416
C	 3.569581	 0.339145	 0.272707
C	 2.539767	 -0.640285	 -0.279495
H	 4.553106	 0.084646	 -0.100901
H	 3.608576	 0.269204	 1.359154
C	 2.150128	 -1.751057	 0.698890
H	 1.653512	 -0.081817	 -0.569375
H	 2.946205	 -1.083806	 -1.186944
C	 1.156464	 -2.748175	 0.096225
H	 1.720732	 -1.305783	 1.592039
H	 3.045879	 -2.286088	 1.014660
C	 0.798141	 -3.929453	 1.005361
H	 0.246346	 -2.221235	 -0.184605
H	 1.576674	 -3.139974	 -0.827689
C	 0.017276	 -3.556748	 2.268619
H	 0.206709	 -4.637466	 0.428524
H	 1.709033	 -4.455851	 1.286462
C	 -0.408043	 -4.776901	 3.088233
H	 -0.867695	 -2.987055	 1.988646
H	 0.614638	 -2.901788	 2.898292
C	 -1.182128	 -4.407358	 4.353102
H	 -1.019110	 -5.430731	 2.469692
H	 0.474122	 -5.352630	 3.360641
H	 -2.088011	 -3.858296	 4.111995
H	 -1.470983	 -5.292891	 4.910801
H	 -0.583957	 -3.783092	 5.011013

8 4 3 2 F
