%nprocshared=1
%mem=2GB
#HF/6-31G* nosymm scf=tight 

Mol

0 1
O	 -0.291628	 1.323815	 -0.000732
C	 -0.449655	 0.146360	 0.000961
C	 -1.783294	 -0.549321	 -0.000296
O	 0.550821	 -0.724572	 0.000672
H	 -1.863538	 -1.185371	 -0.874187
H	 -2.574672	 0.185258	 -0.002793
H	 -1.866414	 -1.182381	 0.875436
C	 0.317750	 -1.969954	 0.633905
H	 0.083379	 -1.826420	 1.678809
H	 1.233887	 -2.529862	 0.529293
H	 -0.497724	 -2.492356	 0.154906

2 4 8 9 F
