%nprocshared=4
%mem=2GB
#HF/cc-pVTZ nosymm scf=tight opt=ModRedundant

Mol

0 1
H	 -3.436473	 1.252944	 -1.023892
O	 -3.458596	 0.315260	 -0.960865
C	 -3.176635	 -0.080824	 0.355601
C	 -1.763371	 0.265266	 0.799691
H	 -3.321825	 -1.153438	 0.379502
H	 -3.895468	 0.357385	 1.043382
C	 -0.673390	 -0.426948	 -0.013392
H	 -1.631049	 1.344913	 0.747560
H	 -1.664587	 -0.001624	 1.849167
C	 0.737842	 -0.043159	 0.423759
H	 -0.806103	 -0.190518	 -1.063345
H	 -0.797221	 -1.503753	 0.074146
C	 0.789280	 1.293013	 1.162032
H	 1.137508	 -0.831122	 1.054847
H	 1.385388	 0.006479	 -0.449211
C	 2.193093	 1.760424	 1.550213
H	 0.172734	 1.232505	 2.055934
H	 0.335156	 2.054059	 0.533383
C	 2.891611	 0.887806	 2.590287
H	 2.122695	 2.772396	 1.937167
H	 2.810421	 1.820655	 0.657634
H	 2.294187	 0.804350	 3.492616
H	 3.849470	 1.312876	 2.867886
H	 3.075653	 -0.114212	 2.221920

13 10 7 11 F
