%nprocshared=4
%mem=2GB
#HF/6-31G* nosymm scf=tight opt=ModRedundant

Mol

0 1
H	 3.893188	 0.355400	 -0.101367
N	 3.092854	 -0.246221	 -0.068770
C	 1.865559	 0.531981	 0.018834
H	 3.199514	 -0.826043	 0.741946
C	 0.645745	 -0.382037	 -0.029944
H	 1.841966	 1.207024	 -0.831236
H	 1.815756	 1.155410	 0.915079
C	 -0.679275	 0.379305	 0.025956
H	 0.698998	 -0.976915	 -0.937203
H	 0.693479	 -1.083846	 0.802235
C	 -0.698485	 1.621842	 -0.866292
H	 -0.882362	 0.674982	 1.054149
H	 -1.492788	 -0.282945	 -0.266393
C	 -2.022938	 2.381763	 -0.804188
H	 0.112637	 2.285586	 -0.575192
H	 -0.498413	 1.329153	 -1.894864
H	 -2.234994	 2.717930	 0.206920
H	 -2.005260	 3.256921	 -1.446363
H	 -2.850582	 1.754312	 -1.123095

12 8 5 9 F
