%nprocshared=1
%mem=2GB
#HF/6-31G* nosymm scf=tight opt=ModRedundant

Mol

0 1
H	 2.219699	 -3.448347	 -1.290881
C	 2.341329	 -2.543030	 -0.704914
C	 1.087556	 -1.672056	 -0.771417
H	 2.559831	 -2.839058	 0.317265
H	 3.210138	 -2.015813	 -1.088920
C	 1.217350	 -0.386724	 0.039429
H	 0.227250	 -2.225035	 -0.407444
H	 0.878121	 -1.421421	 -1.810027
N	 0.000003	 0.397874	 -0.023260
H	 1.400482	 -0.636932	 1.080977
H	 2.093214	 0.174991	 -0.302208
C	 -1.217365	 -0.386708	 0.039277
H	 -0.000031	 1.072115	 0.718656
C	 -2.452633	 0.504241	 -0.042481
H	 -1.215291	 -1.074557	 -0.802042
H	 -1.269739	 -1.003477	 0.942735
C	 -3.758029	 -0.289423	 -0.010781
H	 -2.394220	 1.093569	 -0.952170
H	 -2.440793	 1.210787	 0.785871
H	 -3.816659	 -0.981993	 -0.845726
H	 -4.617837	 0.370165	 -0.069296
H	 -3.847478	 -0.867502	 0.904682

10 6 9 12 F
