%nprocshared=4
%mem=2GB
#HF/cc-pVTZ nosymm scf=tight opt=ModRedundant

Mol

0 1
O	 -0.406316	 0.104456	 2.438929
C	 -0.846966	 0.612872	 1.465048
C	 -1.705041	 1.846597	 1.455975
O	 -0.637375	 0.157174	 0.243149
H	 -2.660144	 1.621661	 0.998917
H	 -1.849763	 2.193395	 2.466135
H	 -1.229463	 2.616125	 0.861651
C	 0.162530	 -1.009518	 0.097799
C	 1.587210	 -0.664190	 0.477086
H	 0.096803	 -1.356267	 -0.924704
H	 -0.233803	 -1.785900	 0.736810
C	 2.057818	 -1.295602	 1.784607
H	 1.647979	 0.418037	 0.553438
H	 2.247587	 -0.956917	 -0.333501
C	 3.485855	 -0.902090	 2.147200
H	 1.386710	 -0.997763	 2.585859
H	 1.987386	 -2.374546	 1.708700
H	 3.792656	 -1.360108	 3.080195
H	 3.581365	 0.172916	 2.259591
H	 4.184925	 -1.216425	 1.379403

12 9 8 10 F
