%nprocshared=4
%mem=2GB
#HF/cc-pVTZ nosymm scf=tight opt=ModRedundant

Mol

0 1
H	 4.610195	 0.375526	 0.154316
C	 3.750542	 -0.284094	 0.151488
C	 2.449948	 0.510008	 0.101411
H	 3.841794	 -0.940543	 -0.707456
H	 3.803868	 -0.899106	 1.043639
C	 1.214954	 -0.378662	 0.096630
H	 2.429693	 1.137018	 -0.783017
H	 2.404439	 1.180234	 0.956573
N	 -0.000662	 0.402931	 0.025049
H	 1.246683	 -1.031544	 -0.770496
H	 1.234867	 -1.031336	 0.974527
C	 -1.215959	 -0.382435	 0.027143
H	 -0.023158	 1.060625	 0.776216
C	 -2.451944	 0.502410	 -0.038737
H	 -1.196074	 -1.035336	 -0.840326
H	 -1.284002	 -1.035249	 0.902518
C	 -3.752217	 -0.292550	 0.005776
H	 -2.407325	 1.093801	 -0.946480
H	 -2.431979	 1.206234	 0.790023
H	 -3.817783	 -0.982946	 -0.828547
H	 -4.612613	 0.364348	 -0.042306
H	 -3.830160	 -0.871666	 0.919868

15 12 14 18 F
