%nprocshared=1
%mem=2GB
#HF/6-31G* nosymm scf=tight 

Mol

0 1
O	 -2.408801	 -2.191444	 0.888406
C	 -1.689725	 -2.705585	 0.086519
C	 -0.655018	 -1.889055	 -0.667779
C	 -1.747808	 -4.190390	 -0.195183
C	 0.581030	 -1.627124	 0.207847
H	 -1.114369	 -0.944225	 -0.937218
H	 -0.361309	 -2.395555	 -1.582776
C	 1.631333	 -0.777471	 -0.511575
H	 0.252991	 -1.138466	 1.118335
H	 1.028246	 -2.574981	 0.503335
C	 2.915987	 -0.544314	 0.291766
H	 1.194095	 0.183428	 -0.776568
H	 1.892476	 -1.262831	 -1.449700
C	 3.373361	 0.914346	 0.347591
H	 3.708709	 -1.142521	 -0.150311
H	 2.780642	 -0.921148	 1.303579
H	 3.506512	 1.320010	 -0.651625
H	 4.322697	 0.999599	 0.867103
H	 2.660624	 1.545032	 0.868198
H	 -2.091295	 -4.355919	 -1.212966
H	 -2.426048	 -4.672008	 0.495337
H	 -0.760541	 -4.635972	 -0.114155

6 3 2 1 F
6 3 5 8 F
3 5 8 12 F
