%nprocshared=4
%mem=2GB
#HF/6-31G* nosymm scf=tight opt=ModRedundant

Mol

0 1
H	 -2.798360	 -0.862255	 -0.071053
N	 -1.863561	 -0.715187	 0.256814
C	 -1.344686	 0.554728	 -0.219830
H	 -1.300452	 -1.461917	 -0.101532
C	 -0.178931	 0.992991	 0.641609
H	 -1.014525	 0.531663	 -1.259283
H	 -2.129844	 1.300759	 -0.144015
O	 0.858657	 0.068919	 0.478551
H	 0.155235	 1.987157	 0.345629
H	 -0.488707	 1.032485	 1.683585
C	 1.969427	 0.304708	 1.283637
H	 2.698361	 -0.465354	 1.070661
H	 2.413540	 1.276302	 1.074469
H	 1.710924	 0.263600	 2.339712

6 3 2 4 F
