%nprocshared=4
%mem=2GB
#HF/6-31G* nosymm scf=tight opt=ModRedundant

Mol

0 1
H	 -3.135461	 -1.215070	 0.001379
O	 -2.310168	 -0.871793	 -0.309793
C	 -2.026376	 0.340750	 0.341611
C	 -0.673256	 0.843270	 -0.132153
H	 -2.792215	 1.080697	 0.115987
H	 -2.013526	 0.200402	 1.421792
C	 0.486613	 -0.083066	 0.235839
H	 -0.715586	 0.970948	 -1.210718
H	 -0.508072	 1.829858	 0.297090
C	 0.071027	 -1.211879	 1.180764
H	 1.278018	 0.502220	 0.692602
H	 0.904565	 -0.512788	 -0.673829
C	 1.228838	 -2.141023	 1.543860
H	 -0.345853	 -0.784065	 2.090106
H	 -0.727499	 -1.793035	 0.723535
H	 2.029268	 -1.594859	 2.034682
H	 0.905456	 -2.929860	 2.216248
H	 1.646277	 -2.611941	 0.658145

10 7 4 8 F
