%nprocshared=1
%mem=2GB
#HF/6-31G* nosymm scf=tight opt=ModRedundant

Mol

0 1
O	 0.625848	 1.349995	 -0.000749
C	 0.486307	 0.169203	 0.000779
C	 1.608116	 -0.841643	 0.000302
O	 -0.698257	 -0.426125	 0.001050
C	 2.990107	 -0.200498	 -0.000684
H	 1.468623	 -1.481519	 -0.865924
H	 1.469683	 -1.481289	 0.866878
H	 3.129736	 0.423364	 -0.875135
H	 3.757882	 -0.966877	 -0.001197
H	 3.130964	 0.423383	 0.873533
C	 -1.777321	 0.255703	 -0.629927
C	 -3.005787	 -0.619520	 -0.498908
H	 -1.523238	 0.435494	 -1.665640
H	 -1.916838	 1.214990	 -0.150454
H	 -2.848051	 -1.578398	 -0.979357
H	 -3.855938	 -0.135639	 -0.968751
H	 -3.243934	 -0.794651	 0.544103

11 4 2 3 F
