%nprocshared=4
%mem=2GB
#HF/6-31G* nosymm scf=tight opt=ModRedundant

Mol

0 1
O	 3.225979	 0.970355	 -0.599647
C	 2.701189	 0.057885	 -0.047330
C	 1.245376	 -0.013843	 0.345420
O	 3.347903	 -1.046386	 0.304773
C	 0.455112	 1.231400	 -0.050772
H	 0.838542	 -0.913825	 -0.103701
H	 1.208210	 -0.175333	 1.419774
C	 -0.998893	 1.219485	 0.433193
H	 0.482531	 1.345121	 -1.130325
H	 0.957290	 2.103070	 0.354729
C	 -1.251368	 0.393712	 1.697893
H	 -1.617642	 0.824151	 -0.369045
H	 -1.334948	 2.242380	 0.596780
C	 -2.732092	 0.323264	 2.076696
H	 -0.870193	 -0.615313	 1.548255
H	 -0.694441	 0.809734	 2.534392
C	 -2.995776	 -0.495071	 3.341975
H	 -3.295181	 -0.104771	 1.249078
H	 -3.116563	 1.332462	 2.215982
C	 -4.477219	 -0.563671	 3.711192
H	 -2.611301	 -1.503548	 3.204879
H	 -2.437200	 -0.066167	 4.171321
H	 -4.631864	 -1.150014	 4.611688
H	 -5.058830	 -1.020340	 2.915341
H	 -4.883432	 0.428191	 3.888602
C	 4.728119	 -1.109107	 -0.004993
H	 4.882018	 -1.033965	 -1.071845
H	 5.068212	 -2.067527	 0.355250
H	 5.265056	 -0.311663	 0.488280

11 8 5 9 F
