%nprocshared=1
%mem=2GB
#HF/6-31G* nosymm scf=tight opt=ModRedundant

Mol

0 1
H	 -2.347465	 -0.513130	 2.338041
C	 -2.233485	 -1.498906	 1.891504
O	 -1.040535	 -1.601955	 1.183275
H	 -2.210150	 -2.239364	 2.679106
H	 -3.095723	 -1.690736	 1.254186
C	 -0.927758	 -0.706402	 0.122844
C	 0.443676	 -0.836689	 -0.497154
H	 -1.684626	 -0.918573	 -0.633350
H	 -1.071509	 0.316975	 0.463490
O	 1.392611	 -0.295398	 0.366430
H	 0.651222	 -1.887095	 -0.691007
H	 0.456977	 -0.309488	 -1.451919
C	 2.706965	 -0.449871	 -0.062409
H	 2.756559	 -0.644779	 -1.131878
H	 3.305899	 0.433456	 0.155466
H	 3.125548	 -1.294566	 0.467107

7 10 13 14 F
