%nprocshared=4
%mem=2GB
#HF/cc-pVTZ nosymm scf=tight opt=ModRedundant

Mol

0 1
O	 0.749630	 1.305591	 -0.000460
C	 0.576499	 0.134701	 -0.003900
C	 -0.765656	 -0.550508	 -0.002152
O	 1.564816	 -0.744612	 -0.000631
C	 -1.945526	 0.411052	 0.000603
H	 -0.794329	 -1.203792	 -0.868145
H	 -0.791555	 -1.205429	 0.862701
C	 -1.522795	 1.839393	 -0.325074
H	 -2.429070	 0.380509	 0.969440
H	 -2.684332	 0.072053	 -0.715376
H	 -0.805292	 2.213289	 0.397907
H	 -2.376486	 2.506185	 -0.317344
H	 -1.064310	 1.901431	 -1.306538
C	 2.884339	 -0.237801	 0.002883
H	 3.064150	 0.362814	 -0.876312
H	 3.533055	 -1.098529	 0.004958
H	 3.059365	 0.363432	 0.882614

9 5 3 6 F
