%nprocshared=1
%mem=2GB
#HF/6-31G* nosymm scf=tight opt=ModRedundant

Mol

0 1
H	 -2.646374	 -0.642757	 1.268656
C	 -2.083525	 -0.384536	 0.393091
O	 -0.807605	 -0.127164	 0.768327
F	 -2.118945	 -1.383102	 -0.486752
F	 -2.621877	 0.670592	 -0.209486
C	 0.209196	 -0.744284	 0.062661
C	 1.181818	 -1.311441	 1.088575
Cl	 1.028617	 0.409330	 -1.002673
H	 -0.149222	 -1.554621	 -0.547802
F	 2.176067	 -1.929090	 0.486812
F	 0.545376	 -2.191572	 1.835401
F	 1.673777	 -0.381780	 1.870675

6 3 2 4 F
