%nprocshared=4
%mem=2GB
#HF/cc-pVTZ nosymm scf=tight opt=ModRedundant

Mol

0 1
O	 -2.817697	 1.304178	 0.001046
C	 -2.664672	 0.129869	 0.003507
C	 -3.797908	 -0.860100	 -0.001145
O	 -1.481217	 -0.452708	 0.001092
H	 -4.408836	 -0.679689	 -0.875387
H	 -3.443486	 -1.878443	 -0.002770
H	 -4.412123	 -0.683688	 0.871605
C	 -0.332055	 0.384012	 -0.000250
C	 0.892252	 -0.506059	 -0.000295
H	 -0.360822	 1.020205	 -0.874146
H	 -0.359817	 1.021310	 0.872861
C	 2.188199	 0.299473	 -0.001416
H	 0.857046	 -1.152781	 -0.871031
H	 0.857910	 -1.151798	 0.871202
C	 1.955728	 1.805619	 -0.082703
H	 2.756099	 0.073900	 0.897797
H	 2.807823	 -0.011824	 -0.838753
C	 3.250542	 2.610888	 -0.085044
H	 1.338112	 2.118188	 0.754500
H	 1.388443	 2.032269	 -0.980981
H	 3.824604	 2.431661	 0.817828
H	 3.050633	 3.674423	 -0.143669
H	 3.875473	 2.344833	 -0.930934

16 12 9 13 F
