%nprocshared=4
%mem=2GB
#HF/6-31G* nosymm scf=tight opt=ModRedundant

Mol

0 1
H	 2.465338	 -2.224223	 0.000000
O	 2.784187	 -1.332015	 0.000000
C	 1.765313	 -0.449364	 0.000000
C	 1.687308	 0.435962	 1.070540
C	 0.821981	 -0.402118	 -1.007981
H	 2.432528	 0.379243	 1.841441
C	 0.667419	 1.363124	 1.127659
H	 0.857815	 -1.072018	 -1.844328
C	 -0.188749	 0.541452	 -0.918993
H	 0.614791	 2.042818	 1.957782
C	 -0.292794	 1.430600	 0.127018
N	 -1.184089	 0.587167	 -1.987962
H	 -1.089797	 2.144230	 0.157372
O	 -1.071565	 -0.194527	 -2.883687
O	 -2.050652	 1.402179	 -1.903774

4 3 2 1 F
