%nprocshared=4
%mem=2GB
#HF/cc-pVTZ nosymm scf=tight opt=ModRedundant

Mol

0 1
H	 -3.436473	 1.252944	 -1.023892
O	 -3.458596	 0.315260	 -0.960865
C	 -3.176635	 -0.080824	 0.355601
C	 -1.763371	 0.265266	 0.799691
H	 -3.321825	 -1.153438	 0.379502
H	 -3.895468	 0.357385	 1.043382
C	 -1.095212	 -0.821671	 1.636622
H	 -1.157878	 0.475478	 -0.080680
H	 -1.805331	 1.192130	 1.366745
C	 0.333305	 -0.472359	 2.045635
H	 -1.097266	 -1.752736	 1.080720
H	 -1.692174	 -0.998199	 2.528239
C	 0.994524	 -1.562093	 2.887250
H	 0.920363	 -0.287166	 1.151232
H	 0.330547	 0.459611	 2.607133
C	 2.399163	 -1.224037	 3.389798
H	 1.032835	 -2.484805	 2.312807
H	 0.362247	 -1.767864	 3.746613
C	 3.455427	 -1.096511	 2.294724
H	 2.710634	 -1.998713	 4.083800
H	 2.362224	 -0.301617	 3.963555
H	 3.510807	 -2.002880	 1.700160
H	 4.435721	 -0.924334	 2.724399
H	 3.246252	 -0.272807	 1.622890

7 4 3 2 F
