%nprocshared=4
%mem=2GB
#HF/cc-pVTZ nosymm scf=tight opt=ModRedundant

Mol

0 1
O	 -2.071633	 -1.227563	 -0.223463
C	 -1.652164	 -0.152425	 0.058082
C	 -0.327811	 0.006324	 0.778296
C	 -2.402515	 1.108629	 -0.298924
C	 0.843231	 -0.001575	 -0.211665
H	 -0.319484	 0.928173	 1.350354
H	 -0.227804	 -0.823091	 1.466705
C	 0.919658	 1.275022	 -1.043945
H	 0.756893	 -0.857042	 -0.876809
H	 1.765978	 -0.132028	 0.343208
C	 2.090258	 1.276988	 -2.021112
H	 -0.009264	 1.403733	 -1.592635
H	 1.002846	 2.129519	 -0.378773
H	 2.016519	 0.452885	 -2.722860
H	 3.035792	 1.181570	 -1.498400
H	 2.119865	 2.196671	 -2.593570
H	 -3.240910	 0.874416	 -0.936711
H	 -1.747554	 1.818823	 -0.790984
H	 -2.760419	 1.579708	 0.610998

9 5 3 2 F
