%nprocshared=4
%mem=2GB
#HF/cc-pVTZ nosymm scf=tight opt=ModRedundant

Mol

0 1
H	 -1.088256	 -1.364742	 0.152233
O	 -1.432053	 -0.565244	 -0.200812
C	 -0.727158	 0.534527	 0.310686
C	 0.680222	 0.664433	 -0.252229
H	 -1.306802	 1.408001	 0.044211
H	 -0.690821	 0.490158	 1.397609
C	 1.518890	 1.745747	 0.422635
H	 1.178771	 -0.295118	 -0.163109
H	 0.597718	 0.881328	 -1.313737
H	 1.673841	 1.531174	 1.474335
H	 2.497697	 1.820219	 -0.035561
H	 1.043614	 2.718814	 0.343826

8 4 3 2 F
