%nprocshared=4
%mem=2GB
#HF/cc-pVTZ nosymm scf=tight opt=ModRedundant

Mol

0 1
H	 -2.016790	 1.495190	 3.873231
O	 -1.320148	 0.933619	 3.587709
C	 -1.177145	 1.011903	 2.194210
C	 -0.046826	 0.094713	 1.773182
H	 -2.099457	 0.714496	 1.699576
H	 -0.957659	 2.033484	 1.890849
C	 0.196029	 0.106276	 0.266738
H	 -0.279499	 -0.912196	 2.105170
H	 0.853866	 0.395554	 2.298698
C	 1.330220	 -0.826136	 -0.155230
H	 -0.720701	 -0.172296	 -0.243868
H	 0.430349	 1.118812	 -0.054895
C	 2.719700	 -0.407669	 0.328325
H	 1.339388	 -0.911200	 -1.239363
H	 1.119001	 -1.821953	 0.224128
C	 3.580286	 -1.549481	 0.864063
H	 2.600231	 0.334236	 1.111913
H	 3.246017	 0.090800	 -0.481584
H	 3.076113	 -2.071269	 1.671285
H	 3.814345	 -2.276709	 0.095919
H	 4.520028	 -1.173046	 1.251817

16 13 10 14 F
