%nprocshared=4
%mem=2GB
#HF/cc-pVTZ nosymm scf=tight opt=ModRedundant

Mol

0 1
O	 -2.071633	 -1.227563	 -0.223463
C	 -1.652164	 -0.152425	 0.058082
C	 -0.327811	 0.006324	 0.778296
C	 -2.402515	 1.108629	 -0.298924
C	 -0.115522	 1.456267	 1.229986
H	 -0.285169	 -0.656133	 1.636467
H	 0.456399	 -0.278334	 0.088496
C	 1.217007	 1.661622	 1.944426
H	 -0.924908	 1.758280	 1.889817
H	 -0.167235	 2.101959	 0.360060
C	 1.438078	 3.104796	 2.384358
H	 1.265767	 1.008170	 2.811113
H	 2.025030	 1.356868	 1.285819
H	 0.663956	 3.427854	 3.072400
H	 1.426235	 3.778571	 1.534501
H	 2.392867	 3.219084	 2.884075
H	 -3.240910	 0.874416	 -0.936711
H	 -1.747554	 1.818823	 -0.790984
H	 -2.760419	 1.579708	 0.610998

5 3 2 4 F
