%nprocshared=4
%mem=2GB
#HF/cc-pVTZ nosymm scf=tight opt=ModRedundant

Mol

0 1
H	 0.372786	 -3.063731	 -4.270100
O	 1.311417	 -3.054546	 -4.296892
C	 1.799065	 -1.830421	 -3.814203
C	 1.658666	 -1.673376	 -2.307448
H	 2.845903	 -1.802073	 -4.084955
H	 1.312159	 -1.000761	 -4.323160
C	 2.974859	 -1.779237	 -1.540455
H	 1.191715	 -0.714755	 -2.102123
H	 0.973730	 -2.440405	 -1.953996
C	 3.571541	 -3.185336	 -1.581608
H	 2.813295	 -1.485360	 -0.508692
H	 3.692552	 -1.074953	 -1.957812
C	 4.928754	 -3.331949	 -0.891150
H	 2.866624	 -3.885256	 -1.139533
H	 3.681159	 -3.483300	 -2.620680
C	 6.079855	 -2.585104	 -1.562665
H	 4.832537	 -2.972183	 0.129555
H	 5.180414	 -4.387473	 -0.815715
C	 7.389014	 -2.680314	 -0.783276
H	 5.808076	 -1.538070	 -1.678098
H	 6.240672	 -2.969980	 -2.565168
C	 8.541315	 -1.938873	 -1.452872
H	 7.240106	 -2.284849	 0.217730
H	 7.657561	 -3.726107	 -0.659743
H	 8.316580	 -0.883001	 -1.561801
H	 9.453356	 -2.024272	 -0.873221
H	 8.740582	 -2.336481	 -2.442596

8 4 3 2 F
