%nprocshared=1
%mem=2GB
#HF/6-31G* nosymm scf=tight 

Mol

0 1
O	 -2.042549	 -1.228399	 -0.269030
C	 -1.653912	 -0.146171	 0.050137
C	 -0.332303	 0.024011	 0.778412
C	 -2.438579	 1.106236	 -0.272369
C	 0.650782	 -1.095374	 0.401062
H	 0.105445	 0.992350	 0.552401
H	 -0.535769	 -0.015530	 1.842818
C	 1.986403	 -0.978941	 1.136990
H	 0.830646	 -1.080731	 -0.672492
H	 0.188977	 -2.052045	 0.626134
C	 2.962694	 -2.095926	 0.770377
H	 2.439009	 -0.015039	 0.914579
H	 1.806351	 -0.993079	 2.209347
H	 3.189260	 -2.086581	 -0.291995
H	 2.550387	 -3.071204	 1.011788
H	 3.899001	 -1.989676	 1.308955
H	 -3.277823	 0.863061	 -0.908988
H	 -1.806773	 1.843019	 -0.759671
H	 -2.802853	 1.554979	 0.648059

11 8 5 9 F
9 5 3 2 F
