%nprocshared=1
%mem=2GB
#HF/6-31G* nosymm scf=tight 

Mol

0 1
H	 -3.135461	 -1.215070	 0.001379
O	 -2.310168	 -0.871793	 -0.309793
C	 -2.026376	 0.340750	 0.341611
C	 -0.673256	 0.843270	 -0.132153
H	 -2.792215	 1.080697	 0.115987
H	 -2.013526	 0.200402	 1.421792
C	 0.486613	 -0.083066	 0.235839
H	 -0.715586	 0.970948	 -1.210718
H	 -0.508072	 1.829858	 0.297090
C	 1.539528	 -0.187378	 -0.868835
H	 0.095756	 -1.069873	 0.461574
H	 0.959059	 0.279247	 1.148179
C	 2.701530	 -1.108499	 -0.498758
H	 1.069157	 -0.549923	 -1.780443
H	 1.924854	 0.804231	 -1.098357
H	 2.352071	 -2.117040	 -0.297226
H	 3.430948	 -1.164955	 -1.301071
H	 3.215044	 -0.753934	 0.390679

14 10 7 11 F
2 3 4 8 F
1 2 3 4 F
