%nprocshared=4
%mem=2GB
#HF/cc-pVTZ nosymm scf=tight opt=ModRedundant

Mol

0 1
H	 -4.659399	 -3.298204	 -3.086382
O	 -5.073142	 -4.055479	 -2.716002
C	 -4.116251	 -4.884346	 -2.110518
C	 -3.564836	 -4.323271	 -0.808281
H	 -4.618508	 -5.822444	 -1.916379
H	 -3.302025	 -5.092035	 -2.802148
C	 -2.756557	 -3.038013	 -0.971515
H	 -4.393640	 -4.150309	 -0.128335
H	 -2.938062	 -5.087098	 -0.354275
C	 -2.191774	 -2.522863	 0.351541
H	 -3.384045	 -2.274091	 -1.418377
H	 -1.936012	 -3.214224	 -1.665014
C	 -1.311023	 -1.277304	 0.237018
H	 -3.012592	 -2.320253	 1.035233
H	 -1.606785	 -3.315930	 0.809036
C	 -2.041121	 -0.006551	 -0.194127
H	 -0.846927	 -1.098038	 1.202940
H	 -0.496533	 -1.476664	 -0.455814
C	 -3.489218	 0.042606	 0.286507
H	 -2.022185	 0.066287	 -1.279394
H	 -1.518764	 0.869305	 0.178730
C	 -4.219984	 1.311773	 -0.139038
H	 -4.022855	 -0.824300	 -0.093339
H	 -3.510372	 -0.038577	 1.370031
H	 -4.244251	 1.405725	 -1.219696
H	 -5.244345	 1.313233	 0.215630
H	 -3.732090	 2.196311	 0.257073

10 13 16 20 F
