%nprocshared=4
%mem=2GB
#HF/cc-pVTZ nosymm scf=tight opt=ModRedundant

Mol

0 1
O	 1.847685	 1.294399	 -0.000190
C	 1.704209	 0.119472	 -0.000093
C	 0.380337	 -0.600947	 -0.000234
O	 2.715427	 -0.733672	 0.000025
C	 -0.824290	 0.329213	 -0.000115
H	 0.371455	 -1.255476	 -0.865660
H	 0.371410	 -1.255787	 0.864952
C	 -1.975771	 -0.212062	 -0.842214
H	 -0.523791	 1.303051	 -0.369726
H	 -1.155660	 0.484526	 1.020356
C	 -3.193626	 0.707265	 -0.853856
H	 -1.636129	 -0.367942	 -1.863779
H	 -2.270165	 -1.190199	 -0.468291
C	 -4.344317	 0.166579	 -1.695866
H	 -2.900951	 1.684235	 -1.228059
H	 -3.534707	 0.862346	 0.165837
H	 -4.044088	 0.033149	 -2.729932
H	 -5.191476	 0.842511	 -1.682739
H	 -4.683125	 -0.795054	 -1.324781
C	 4.020999	 -0.192556	 0.000019
H	 4.182809	 0.412891	 -0.879449
H	 4.692590	 -1.035653	 0.000152
H	 4.182726	 0.413087	 0.879368

9 5 3 6 F
