%nprocshared=1
%mem=2GB
#HF/6-31G* nosymm scf=tight 

Mol

0 1
H	 4.151204	 -0.195657	 1.911316
C	 3.489074	 -0.613259	 1.159689
C	 2.178711	 0.169251	 1.084932
H	 4.014296	 -0.591028	 0.208966
H	 3.314095	 -1.654372	 1.416031
C	 1.217350	 -0.386724	 0.039429
H	 2.376937	 1.211033	 0.853011
H	 1.695131	 0.155452	 2.060304
N	 0.000003	 0.397874	 -0.023260
H	 1.690124	 -0.348878	 -0.938332
H	 1.021472	 -1.443961	 0.247416
C	 -1.217365	 -0.386708	 0.039277
H	 -0.000031	 1.072115	 0.718656
C	 -2.452633	 0.504241	 -0.042481
H	 -1.215291	 -1.074557	 -0.802042
H	 -1.269739	 -1.003477	 0.942735
C	 -3.758029	 -0.289423	 -0.010781
H	 -2.394220	 1.093569	 -0.952170
H	 -2.440793	 1.210787	 0.785871
H	 -3.816659	 -0.981993	 -0.845726
H	 -4.617837	 0.370165	 -0.069296
H	 -3.847478	 -0.867502	 0.904682

15 12 14 18 F
