%nprocshared=4
%mem=2GB
#HF/6-31G* nosymm scf=tight opt=ModRedundant

Mol

0 1
O	 0.625848	 1.349995	 -0.000749
C	 0.486307	 0.169203	 0.000779
C	 1.608116	 -0.841643	 0.000302
O	 -0.698257	 -0.426125	 0.001050
C	 2.990107	 -0.200498	 -0.000684
H	 1.468623	 -1.481519	 -0.865924
H	 1.469683	 -1.481289	 0.866878
H	 3.129736	 0.423364	 -0.875135
H	 3.757882	 -0.966877	 -0.001197
H	 3.130964	 0.423383	 0.873533
C	 -1.776943	 0.255526	 0.632863
C	 -3.006350	 -0.617947	 0.499015
H	 -1.915060	 1.215958	 0.155287
H	 -1.523359	 0.432886	 1.669121
H	 -3.243849	 -0.790654	 -0.544500
H	 -3.856300	 -0.134037	 0.969191
H	 -2.850130	 -1.578032	 0.977647

11 4 2 3 F
