%nprocshared=1
%mem=2GB
#HF/6-31G* nosymm scf=tight 

Mol

0 1
O	 3.225979	 0.970355	 -0.599647
C	 2.701189	 0.057885	 -0.047330
C	 1.245376	 -0.013843	 0.345420
O	 3.347903	 -1.046386	 0.304773
C	 0.455112	 1.231400	 -0.050772
H	 0.838542	 -0.913825	 -0.103701
H	 1.208210	 -0.175333	 1.419774
C	 -0.998893	 1.219485	 0.433193
H	 0.482531	 1.345121	 -1.130325
H	 0.957290	 2.103070	 0.354729
C	 -1.360261	 2.334672	 1.418525
H	 -1.187349	 0.260305	 0.909830
H	 -1.667190	 1.265749	 -0.425439
C	 -2.787938	 2.214600	 1.955480
H	 -0.659913	 2.316192	 2.252186
H	 -1.244371	 3.306296	 0.943669
C	 -3.161868	 3.326712	 2.937068
H	 -2.908399	 1.249388	 2.444449
H	 -3.488124	 2.222219	 1.121586
C	 -4.587815	 3.197336	 3.471518
H	 -2.462573	 3.321168	 3.770494
H	 -3.046268	 4.292100	 2.448762
H	 -4.823002	 3.999495	 4.164219
H	 -4.725884	 2.256199	 3.996299
H	 -5.313946	 3.234005	 2.664262
C	 4.728119	 -1.109107	 -0.004993
H	 4.882018	 -1.033965	 -1.071845
H	 5.068212	 -2.067527	 0.355250
H	 5.265056	 -0.311663	 0.488280

21 17 14 11 F
17 14 11 15 F
15 11 8 5 F
6 3 5 9 F
2 4 26 27 F
1 2 4 26 F
6 3 2 1 F
