%nprocshared=4
%mem=2GB
#HF/cc-pVTZ nosymm scf=tight opt=ModRedundant

Mol

0 1
H	 -2.171709	 0.882708	 0.500286
C	 -2.016894	 0.001719	 -0.114152
O	 -0.775228	 0.000056	 -0.739966
H	 -2.760846	 0.003757	 -0.898169
H	 -2.174774	 -0.879864	 0.498643
C	 0.400460	 0.177412	 0.025267
C	 1.522744	 0.113761	 -1.004933
C	 0.407126	 1.541447	 0.718092
C	 0.568573	 -0.948031	 1.047867
H	 1.394185	 0.892930	 -1.745522
H	 1.507662	 -0.841202	 -1.514759
H	 2.490179	 0.239792	 -0.533601
H	 0.222293	 2.329667	 -0.001780
H	 1.370835	 1.720535	 1.179701
H	 -0.342509	 1.606617	 1.496784
H	 0.497342	 -1.912871	 0.560321
H	 1.539386	 -0.877494	 1.523708
H	 -0.179604	 -0.903563	 1.829418

6 3 2 5 F
