%nprocshared=1
%mem=2GB
#HF/6-31G* nosymm scf=tight 

Mol

0 1
O	 -0.291628	 1.323815	 -0.000732
C	 -0.449655	 0.146360	 0.000961
C	 -1.783294	 -0.549321	 -0.000296
O	 0.550821	 -0.724572	 0.000672
H	 -1.863538	 -1.185371	 -0.874187
H	 -2.574672	 0.185258	 -0.002793
H	 -1.866414	 -1.182381	 0.875436
C	 0.400890	 -1.874507	 0.813969
H	 0.286101	 -1.593602	 1.850922
H	 1.303333	 -2.450136	 0.679822
H	 -0.459905	 -2.449028	 0.503645

2 4 8 9 F
