%nprocshared=1
%mem=2GB
#HF/6-31G* nosymm scf=tight 

Mol

0 1
O	 -1.276010	 1.052711	 -0.768302
C	 -1.204840	 0.067374	 -0.106123
C	 -2.388195	 -0.672128	 0.458071
O	 -0.067104	 -0.527208	 0.221609
H	 -2.388023	 -1.694060	 0.097175
H	 -3.300579	 -0.174919	 0.164318
H	 -2.315377	 -0.706351	 1.539059
C	 -0.110042	 -1.822128	 0.837455
C	 1.174195	 -1.945811	 1.638096
C	 -0.251326	 -2.894821	 -0.231196
H	 -0.965439	 -1.847921	 1.496347
H	 1.242927	 -1.154794	 2.376212
H	 1.202415	 -2.899789	 2.154295
H	 2.039546	 -1.882158	 0.987121
H	 -0.261272	 -3.878766	 0.226810
H	 -1.175119	 -2.769252	 -0.781482
H	 0.581145	 -2.849633	 -0.926149

11 8 4 2 F
