%nprocshared=1
%mem=2GB
#HF/6-31G* nosymm scf=tight 
prop=(read,field)

Mol

0 1
H	 2.332609	 0.878551	 -1.051869
C	 2.357710	 -0.000000	 -0.417185
C	 1.175432	 0.000000	 0.532064
H	 3.291263	 -0.000000	 0.136862
H	 2.332609	 -0.878551	 -1.051869
O	 0.000000	 0.000000	 -0.221462
H	 1.206604	 0.877321	 1.177884
H	 1.206604	 -0.877321	 1.177884
C	 -1.175432	 0.000000	 0.532064
C	 -2.357710	 -0.000000	 -0.417185
H	 -1.206604	 0.877321	 1.177884
H	 -1.206604	 -0.877321	 1.177884
H	 -2.332609	 0.878551	 -1.051869
H	 -3.291263	 -0.000000	 0.136862
H	 -2.332609	 -0.878551	 -1.051869

@grid.dat /N
