%nprocshared=4
%mem=2GB
#HF/cc-pVTZ nosymm scf=tight opt=ModRedundant

Mol

0 1
O	 3.233067	 -2.773940	 -0.713079
C	 2.574127	 -2.072921	 -0.023620
C	 3.029985	 -0.780577	 0.604367
O	 1.317782	 -2.342573	 0.292610
C	 4.471569	 -0.418847	 0.269344
H	 2.334025	 -0.014009	 0.285673
H	 2.891459	 -0.880311	 1.676372
C	 4.766905	 -0.381822	 -1.230738
H	 5.139445	 -1.119792	 0.757901
H	 4.692205	 0.551038	 0.697889
C	 3.746084	 0.381669	 -2.073004
H	 4.814397	 -1.405826	 -1.588962
H	 5.756161	 0.039991	 -1.394223
C	 3.407389	 1.755151	 -1.499750
H	 4.134138	 0.500200	 -3.082081
H	 2.830192	 -0.194834	 -2.164229
C	 2.632866	 1.691424	 -0.186423
H	 2.828244	 2.315746	 -2.229588
H	 4.326067	 2.316621	 -1.345975
C	 2.296674	 3.067316	 0.378974
H	 1.714530	 1.130856	 -0.338548
H	 3.211604	 1.133807	 0.545001
H	 1.747824	 2.986293	 1.310201
H	 1.687904	 3.637405	 -0.314932
H	 3.196777	 3.640680	 0.574618
C	 0.824678	 -3.623490	 -0.043565
H	 -0.139967	 -3.792406	 0.411591
H	 1.544729	 -4.329140	 0.337866
H	 0.731980	 -3.727573	 -1.114467

1 2 4 26 F
