%nprocshared=4
%mem=2GB
#HF/cc-pVTZ nosymm scf=tight opt=ModRedundant

Mol

0 1
H	 1.266383	 -1.074215	 -0.200501
O	 1.182578	 -0.465032	 -0.912066
C	 0.616966	 0.722831	 -0.450881
C	 -0.793473	 0.591216	 0.050087
H	 0.636274	 1.415459	 -1.284066
H	 1.228684	 1.164737	 0.333479
C	 -1.534243	 -0.493009	 -0.013340
H	 -1.198372	 1.486852	 0.491834
H	 -1.101195	 -1.466332	 -0.144046
H	 -2.604242	 -0.437780	 0.050785

3 4 7 9 F
