%nprocshared=1
%mem=2GB
#HF/6-31G* nosymm scf=tight opt=ModRedundant

Mol

0 1
O	 1.096269	 -2.579417	 -4.604086
C	 0.794389	 -1.483420	 -4.240640
C	 0.535027	 -1.193986	 -2.772558
C	 0.686765	 -0.327201	 -5.209633
C	 1.856545	 -1.037771	 -2.002929
H	 -0.023675	 -2.030084	 -2.366237
H	 -0.068183	 -0.297552	 -2.660437
C	 1.631333	 -0.777471	 -0.511575
H	 2.441531	 -1.938764	 -2.149172
H	 2.432579	 -0.216663	 -2.426853
C	 2.915987	 -0.544314	 0.291766
H	 1.085203	 -1.614565	 -0.080596
H	 0.990121	 0.094535	 -0.400663
C	 3.373361	 0.914346	 0.347591
H	 3.708709	 -1.142521	 -0.150311
H	 2.780642	 -0.921148	 1.303579
H	 3.506512	 1.320010	 -0.651625
H	 4.322697	 0.999599	 0.867103
H	 2.660624	 1.545032	 0.868198
H	 -0.346450	 0.004800	 -5.268844
H	 1.022028	 -0.633821	 -6.190636
H	 1.275453	 0.518470	 -4.865988

12 8 11 15 F
