%nprocshared=4
%mem=2GB
#HF/cc-pVTZ nosymm scf=tight opt=ModRedundant

Mol

0 1
H	 -1.090458	 -8.460651	 -1.750347
O	 -0.435972	 -8.516319	 -2.421449
C	 -0.921036	 -7.969567	 -3.619384
C	 -1.027064	 -6.452064	 -3.594293
H	 -0.220449	 -8.270687	 -4.386512
H	 -1.884590	 -8.407133	 -3.873451
C	 0.213229	 -5.745544	 -3.051753
H	 -1.235319	 -6.103682	 -4.601476
H	 -1.887477	 -6.187327	 -2.984372
C	 0.431594	 -5.996527	 -1.560391
H	 0.124921	 -4.678958	 -3.229513
H	 1.089740	 -6.083116	 -3.602261
C	 1.701674	 -5.372571	 -0.979160
H	 -0.431621	 -5.634256	 -1.007357
H	 0.468684	 -7.069395	 -1.392917
C	 3.009841	 -5.968591	 -1.496077
H	 1.693439	 -4.309803	 -1.204959
H	 1.675112	 -5.449978	 0.105486
C	 3.483501	 -7.168232	 -0.679428
H	 3.781425	 -5.201776	 -1.485084
H	 2.898094	 -6.272898	 -2.532375
C	 4.787405	 -7.768073	 -1.195101
H	 3.610487	 -6.868801	 0.357294
H	 2.710250	 -7.931867	 -0.682378
H	 5.589371	 -7.037552	 -1.174452
H	 5.096164	 -8.614511	 -0.592342
H	 4.682460	 -8.112344	 -2.218729

10 13 16 20 F
