%nprocshared=4
%mem=2GB
#HF/cc-pVTZ nosymm scf=tight opt=ModRedundant

Mol

0 1
H	 -2.698799	 -0.000846	 0.036018
C	 -1.694291	 -0.000483	 0.434279
O	 -0.828718	 -0.000608	 -0.655022
H	 -1.576855	 0.881100	 1.056504
H	 -1.576401	 -0.881658	 1.057001
C	 0.075451	 1.066297	 -0.803576
C	 -0.625636	 2.400344	 -1.033943
C	 1.091930	 1.134772	 0.330590
H	 0.609802	 0.813309	 -1.710816
H	 -1.366063	 2.306478	 -1.818810
H	 0.098035	 3.148332	 -1.336534
H	 -1.117125	 2.764974	 -0.139479
H	 1.542688	 0.163270	 0.491974
H	 1.877999	 1.836840	 0.077669
H	 0.645992	 1.465712	 1.261267

6 3 2 1 F
