%nprocshared=4
%mem=2GB
#HF/cc-pVTZ nosymm scf=tight opt=ModRedundant

Mol

0 1
O	 0.395927	 1.296676	 -0.000076
C	 0.503051	 0.114301	 -0.000074
C	 -0.701422	 -0.805636	 -0.000109
C	 1.858118	 -0.556123	 0.000212
C	 -1.571060	 -0.688421	 1.241693
H	 -1.276337	 -0.592721	 -0.897647
H	 -0.337319	 -1.822257	 -0.124010
H	 -1.953927	 0.317120	 1.353623
H	 -2.411036	 -1.369800	 1.178303
H	 -1.006599	 -0.923317	 2.134127
H	 1.961106	 -1.191101	 -0.872843
H	 2.636688	 0.191085	 -0.000109
H	 1.961070	 -1.190284	 0.873873

6 3 2 1 F
