%nprocshared=1
%mem=2GB
#HF/6-31G* nosymm scf=tight 
prop=(read,field)

Mol

0 1
H	 -3.650134	 0.221924	 -0.000000
C	 -2.576874	 0.154048	 -0.000000
C	 -1.960180	 -1.089368	 -0.000000
C	 -1.811583	 1.307496	 -0.000000
H	 -2.554324	 -1.985346	 -0.000000
C	 -0.581398	 -1.175916	 -0.000000
H	 -2.286969	 2.271641	 0.000000
C	 -0.428570	 1.219160	 0.000000
H	 -0.090677	 -2.129959	 -0.000000
C	 0.198490	 -0.021619	 0.000000
H	 0.150097	 2.123979	 0.000000
C	 1.691505	 -0.173253	 0.000000
C	 2.557928	 1.068863	 -0.000000
O	 2.191930	 -1.259047	 0.000000
H	 2.362359	 1.677762	 -0.876798
H	 3.594590	 0.764194	 -0.000000
H	 2.362359	 1.677762	 0.876798

@grid.dat /N
