%nprocshared=1
%mem=2GB
#HF/6-31G* nosymm scf=tight 

Mol

0 1
O	 -2.042549	 -1.228399	 -0.269030
C	 -1.653912	 -0.146171	 0.050137
C	 -0.332303	 0.024011	 0.778412
C	 -2.438579	 1.106236	 -0.272369
C	 0.845713	 -0.001731	 -0.208243
H	 -0.323783	 0.953829	 1.340327
H	 -0.235459	 -0.796807	 1.480410
C	 0.925690	 1.263975	 -1.063009
H	 0.760959	 -0.869568	 -0.859977
H	 1.766147	 -0.124141	 0.354748
C	 2.101525	 1.244971	 -2.038846
H	 -0.002622	 1.385470	 -1.616996
H	 1.009826	 2.130729	 -0.411682
H	 2.027660	 0.407392	 -2.726637
H	 3.046749	 1.157053	 -1.511337
H	 2.135041	 2.155274	 -2.628974
H	 -3.277823	 0.863061	 -0.908988
H	 -1.806773	 1.843019	 -0.759671
H	 -2.802853	 1.554979	 0.648059

11 8 5 9 F
5 3 2 4 F
