%nprocshared=4
%mem=2GB
#HF/cc-pVTZ nosymm scf=tight opt=ModRedundant

Mol

0 1
H	 1.426901	 2.420259	 -2.432508
O	 0.722592	 2.200056	 -1.851548
C	 1.186441	 1.359925	 -0.826345
C	 0.027642	 1.012027	 0.090274
H	 1.958618	 1.860415	 -0.247537
H	 1.627138	 0.459160	 -1.244519
C	 -1.138737	 0.285728	 -0.581921
H	 -0.338305	 1.933280	 0.531730
H	 0.416541	 0.405836	 0.904831
C	 -1.933983	 -0.631436	 0.343653
H	 -0.763151	 -0.285569	 -1.422081
H	 -1.808359	 1.035291	 -0.992333
H	 -2.789188	 -1.049673	 -0.174718
H	 -1.335629	 -1.461368	 0.700418
H	 -2.305435	 -0.092167	 1.209725

8 4 7 11 F
