%nprocshared=1
%mem=2GB
#HF/6-31G* nosymm scf=tight 

Mol

0 1
O	 -0.291628	 1.323815	 -0.000732
C	 -0.449655	 0.146360	 0.000961
C	 -1.783294	 -0.549321	 -0.000296
O	 0.550821	 -0.724572	 0.000672
H	 -1.863538	 -1.185371	 -0.874187
H	 -2.574672	 0.185258	 -0.002793
H	 -1.866414	 -1.182381	 0.875436
C	 1.447904	 -0.671125	 -1.094165
H	 0.926093	 -0.857132	 -2.021780
H	 2.178781	 -1.443944	 -0.914391
H	 1.928546	 0.295232	 -1.143954

2 4 8 9 F
