%nprocshared=1
%mem=2GB
#HF/6-31G* nosymm scf=tight 

Mol

0 1
H	 -3.892951	 0.981613	 -0.358725
C	 -3.196921	 0.361773	 0.172313
C	 -2.076860	 -0.007332	 -0.404944
H	 -3.439953	 0.057760	 1.173024
O	 -1.272648	 -0.963891	 0.129002
H	 -1.739933	 0.407710	 -1.338441
C	 -0.027703	 -1.170602	 -0.444784
C	 1.015437	 -0.240179	 0.131816
H	 -0.042172	 -1.036322	 -1.520635
H	 0.273281	 -2.183795	 -0.222673
F	 2.191699	 -0.500698	 -0.419857
F	 0.729916	 1.028310	 -0.111584
F	 1.138242	 -0.381362	 1.435417

11 8 7 9 F
3 5 7 9 F
6 3 5 7 F
