%nprocshared=4
%mem=2GB
#HF/cc-pVTZ nosymm scf=tight opt=ModRedundant

Mol

0 1
O	 -0.694481	 1.313155	 -0.204815
C	 -0.862519	 0.151932	 -0.046791
C	 -2.171428	 -0.477048	 0.339095
O	 0.085519	 -0.757083	 -0.192238
H	 -2.467997	 -1.191667	 -0.417688
H	 -2.923379	 0.287970	 0.444097
H	 -2.053854	 -1.015120	 1.270901
C	 1.392036	 -0.330828	 -0.560749
C	 2.432534	 -0.783717	 0.442323
H	 1.398207	 0.742439	 -0.669721
H	 1.565439	 -0.783303	 -1.525606
H	 3.419535	 -0.499572	 0.095130
H	 2.266025	 -0.323323	 1.406530
H	 2.409272	 -1.860598	 0.557989

10 8 4 2 F
