%nprocshared=4
%mem=2GB
#HF/cc-pVTZ nosymm scf=tight opt=ModRedundant

Mol

0 1
H	 1.135896	 3.923070	 2.264099
N	 0.314243	 3.361147	 2.195210
C	 0.446942	 2.365830	 1.142976
H	 -0.449161	 3.977368	 2.008571
C	 -0.773573	 1.458676	 1.096716
H	 1.327349	 1.770103	 1.359541
H	 0.602890	 2.807967	 0.158014
C	 -0.678115	 0.376691	 0.025731
H	 -0.904181	 1.005637	 2.074010
H	 -1.659507	 2.064981	 0.917833
C	 -1.900706	 -0.535531	 -0.022488
H	 0.209544	 -0.226522	 0.202225
H	 -0.540942	 0.840436	 -0.948433
C	 -3.220513	 0.226854	 0.028039
H	 -1.865036	 -1.134397	 -0.928236
H	 -1.857948	 -1.236381	 0.806820
H	 -3.309098	 0.911849	 -0.808725
H	 -4.066838	 -0.449485	 -0.008086
H	 -3.301685	 0.809374	 0.939860

12 8 11 15 F
