%nprocshared=4
%mem=2GB
#HF/cc-pVTZ nosymm scf=tight opt=ModRedundant

Mol

0 1
O	 0.749630	 1.305591	 -0.000460
C	 0.576499	 0.134701	 -0.003900
C	 -0.765656	 -0.550508	 -0.002152
O	 1.564816	 -0.744612	 -0.000631
C	 -1.945526	 0.411052	 0.000603
H	 -0.794329	 -1.203792	 -0.868145
H	 -0.791555	 -1.205429	 0.862701
C	 -2.034682	 1.206636	 1.298301
H	 -2.861174	 -0.146477	 -0.154778
H	 -1.857819	 1.086577	 -0.841628
H	 -2.155091	 0.552000	 2.155193
H	 -2.880290	 1.883425	 1.279170
H	 -1.140648	 1.799834	 1.460001
C	 2.884339	 -0.237801	 0.002883
H	 3.064150	 0.362814	 -0.876312
H	 3.533055	 -1.098529	 0.004958
H	 3.059365	 0.363432	 0.882614

9 5 3 6 F
