%nprocshared=4
%mem=2GB
#HF/cc-pVTZ nosymm scf=tight 
prop=(read,field)

Mol

0 1
O	 0.074859	 1.259913	 0.000487
C	 0.029579	 0.077224	 0.000078
C	 -1.232024	 -0.747986	 0.000015
O	 1.106862	 -0.690040	 -0.000204
C	 -2.501333	 0.088633	 -0.000052
H	 -1.188688	 -1.400343	 -0.865133
H	 -1.188768	 -1.400271	 0.865225
H	 -2.548081	 0.725545	 -0.873205
H	 -3.371524	 -0.556357	 -0.000040
H	 -2.548126	 0.725612	 0.873047
C	 2.363819	 -0.043742	 -0.000327
H	 2.475340	 0.572845	 -0.879883
H	 3.102371	 -0.828832	 -0.000058
H	 2.475183	 0.573248	 0.878972

@grid.dat /N
