%nprocshared=1
%mem=2GB
#HF/6-31G* nosymm scf=tight opt=ModRedundant

Mol

0 1
O	 -1.969636	 1.622530	 -0.941240
C	 -1.983454	 0.547394	 -0.423240
C	 -0.889235	 -0.467034	 -0.705952
C	 -3.064018	 0.153092	 0.558740
C	 0.379448	 -0.143569	 0.099626
H	 -0.665673	 -0.422696	 -1.766309
H	 -1.230348	 -1.471919	 -0.473840
C	 1.631333	 -0.777471	 -0.511575
H	 0.482768	 0.934507	 0.149241
H	 0.263088	 -0.495696	 1.123449
C	 2.915987	 -0.544314	 0.291766
H	 1.766672	 -0.399098	 -1.523130
H	 1.471257	 -1.849544	 -0.605828
C	 3.373361	 0.914346	 0.347591
H	 3.708709	 -1.142521	 -0.150311
H	 2.780642	 -0.921148	 1.303579
H	 3.506512	 1.320010	 -0.651625
H	 4.322697	 0.999599	 0.867103
H	 2.660624	 1.545032	 0.868198
H	 -3.663850	 -0.650080	 0.138762
H	 -3.698956	 1.001924	 0.771156
H	 -2.627915	 -0.221441	 1.480339

6 3 5 8 F
