%nprocshared=1
%mem=2GB
#HF/6-31G* nosymm scf=tight opt=ModRedundant

Mol

0 1
H	 -3.261111	 -0.295142	 1.469456
C	 -3.306842	 -0.277400	 0.373456
C	 -2.660244	 0.921717	 -0.272021
O	 -3.838538	 -1.161155	 -0.216482
C	 -3.595575	 2.137710	 -0.324673
H	 -1.744645	 1.145995	 0.262850
H	 -2.391531	 0.632407	 -1.287279
C	 -3.927357	 2.712723	 1.054668
H	 -3.126975	 2.905937	 -0.932560
H	 -4.515376	 1.863962	 -0.839244
C	 -4.850785	 3.930676	 0.986218
H	 -3.002363	 2.986062	 1.558176
H	 -4.390729	 1.945837	 1.672495
C	 -5.167571	 4.512911	 2.366290
H	 -4.387704	 4.688823	 0.359720
H	 -5.780469	 3.650930	 0.492443
C	 -6.155759	 5.684839	 2.354497
H	 -4.241990	 4.828900	 2.844981
H	 -5.577340	 3.722483	 2.991610
C	 -5.635882	 6.947772	 1.665767
H	 -6.410336	 5.929135	 3.382825
H	 -7.082724	 5.369615	 1.879849
H	 -4.700051	 7.277153	 2.109611
H	 -5.462560	 6.791031	 0.606350
H	 -6.350021	 7.760091	 1.761356

6 3 2 4 F
