%nprocshared=4
%mem=2GB
#HF/cc-pVTZ nosymm scf=tight opt=ModRedundant

Mol

0 1
O	 3.042008	 -0.988224	 0.050560
C	 2.574127	 -2.072921	 -0.023620
C	 3.300766	 -3.312667	 -0.478981
O	 1.317782	 -2.342573	 0.292610
C	 2.507904	 -4.148681	 -1.475828
H	 4.250922	 -2.988122	 -0.885708
H	 3.539273	 -3.887633	 0.410320
C	 2.032815	 -3.364819	 -2.700038
H	 1.657119	 -4.594607	 -0.972454
H	 3.127332	 -4.974824	 -1.802640
C	 3.097034	 -2.491520	 -3.362754
H	 1.206881	 -2.730357	 -2.392700
H	 1.624401	 -4.054853	 -3.435109
C	 4.410517	 -3.230898	 -3.603309
H	 2.714601	 -2.122270	 -4.311580
H	 3.295495	 -1.615492	 -2.752241
C	 5.155430	 -3.580382	 -2.318109
H	 5.053692	 -2.623446	 -4.235502
H	 4.212083	 -4.143431	 -4.160779
C	 6.467337	 -4.317184	 -2.566707
H	 5.354599	 -2.669524	 -1.760085
H	 4.514950	 -4.189870	 -1.686313
H	 6.970033	 -4.550180	 -1.635046
H	 7.144553	 -3.718711	 -3.166971
H	 6.298306	 -5.250531	 -3.093489
C	 0.824678	 -3.623490	 -0.043565
H	 -0.139967	 -3.792406	 0.411591
H	 1.544729	 -4.329140	 0.337866
H	 0.731980	 -3.727573	 -1.114467

6 3 2 1 F
