%nprocshared=4
%mem=2GB
#HF/cc-pVTZ nosymm scf=tight opt=ModRedundant

Mol

0 1
H	 -1.088256	 -1.364742	 0.152233
O	 -1.432053	 -0.565244	 -0.200812
C	 -0.727158	 0.534527	 0.310686
C	 0.680222	 0.664433	 -0.252229
H	 -1.306802	 1.408001	 0.044211
H	 -0.690821	 0.490158	 1.397609
C	 0.910407	 -0.133338	 -1.532316
H	 0.885421	 1.714446	 -0.432779
H	 1.378323	 0.331781	 0.511084
H	 0.271041	 0.212114	 -2.337300
H	 1.934049	 -0.034117	 -1.872706
H	 0.715913	 -1.190311	 -1.377603

8 4 3 2 F
