%nprocshared=4
%mem=2GB
#HF/cc-pVTZ nosymm scf=tight opt=ModRedundant

Mol

0 1
H	 -1.062082	 1.940313	 1.457559
C	 -0.873759	 1.088369	 0.838963
C	 -1.907919	 0.480514	 0.057823
C	 0.347704	 0.553141	 0.771184
H	 -2.901341	 0.886986	 0.090228
C	 -1.645478	 -0.583766	 -0.707035
H	 1.173236	 0.952081	 1.326599
N	 0.640204	 -0.530428	 -0.000115
H	 -2.393442	 -1.063685	 -1.303850
C	 -0.312516	 -1.164562	 -0.778593
C	 2.006991	 -1.033007	 -0.000020
O	 -0.037658	 -2.119251	 -1.453326
H	 2.182444	 -1.636914	 -0.880881
H	 2.678769	 -0.195442	 -0.002236
H	 2.183828	 -1.633244	 0.883082

10 8 11 13 F
