%nprocshared=4
%mem=2GB
#HF/cc-pVTZ nosymm scf=tight opt=ModRedundant

Mol

0 1
O	 -2.767922	 0.095031	 0.150019
C	 -1.999722	 -0.489929	 0.842205
C	 -0.766723	 -1.150314	 0.257695
C	 -2.197924	 -0.590890	 2.335956
C	 0.376695	 -0.140025	 0.100361
H	 -1.036580	 -1.547507	 -0.712627
H	 -0.447041	 -1.974169	 0.886926
C	 1.630207	 -0.772146	 -0.501001
H	 0.026985	 0.674512	 -0.521297
H	 0.623015	 0.288510	 1.068857
C	 2.907848	 -0.545876	 0.309149
H	 1.772784	 -0.391628	 -1.509394
H	 1.468529	 -1.842059	 -0.599744
C	 3.373802	 0.906639	 0.372125
H	 3.699140	 -1.146831	 -0.127906
H	 2.764321	 -0.923458	 1.318191
H	 3.519798	 1.311927	 -0.623875
H	 4.316899	 0.983758	 0.900700
H	 2.661122	 1.540651	 0.885346
H	 -2.413589	 -1.621736	 2.598336
H	 -3.017761	 0.038711	 2.645859
H	 -1.292779	 -0.309247	 2.862244

3 5 8 12 F
