%nprocshared=4
%mem=2GB
#HF/cc-pVTZ nosymm scf=tight opt=ModRedundant

Mol

0 1
O	 -1.278239	 1.034789	 -0.784693
C	 -1.204115	 0.062668	 -0.112312
C	 -2.386398	 -0.667698	 0.460323
O	 -0.068058	 -0.518372	 0.226882
H	 -2.382952	 -1.693172	 0.114333
H	 -3.296656	 -0.175702	 0.158400
H	 -2.312537	 -0.685191	 1.540100
C	 1.169086	 0.037484	 -0.230612
C	 2.261501	 -0.878796	 0.283366
C	 1.308350	 1.464884	 0.267126
H	 1.156595	 0.030438	 -1.309909
H	 2.122993	 -1.885695	 -0.089084
H	 3.230158	 -0.522153	 -0.045605
H	 2.257734	 -0.911137	 1.366360
H	 2.250195	 1.883220	 -0.068169
H	 0.508810	 2.084367	 -0.114484
H	 1.288647	 1.492983	 1.350688

11 8 4 2 F
