%nprocshared=4
%mem=2GB
#HF/cc-pVTZ nosymm scf=tight opt=ModRedundant

Mol

0 1
H	 -2.434207	 1.260127	 2.169105
C	 -2.080456	 0.238290	 2.052519
O	 -0.807949	 0.200967	 1.498557
H	 -2.030705	 -0.225577	 3.026808
H	 -2.798535	 -0.306619	 1.442338
C	 -0.718530	 0.758693	 0.228682
C	 0.718529	 0.758687	 -0.228709
H	 -1.314214	 0.182569	 -0.479281
H	 -1.093495	 1.779883	 0.229481
O	 1.401606	 -0.295166	 0.366636
H	 0.748705	 0.673477	 -1.312803
H	 1.176496	 1.708671	 0.046552
C	 2.714315	 -0.441627	 -0.061017
H	 2.765292	 -0.641548	 -1.128869
H	 3.305661	 0.447341	 0.150952
H	 3.143725	 -1.278506	 0.470147

3 6 7 11 F
