%nprocshared=4
%mem=2GB
#HF/cc-pVTZ nosymm scf=tight opt=ModRedundant

Mol

0 1
H	 6.830139	 -7.991321	 -3.594019
O	 6.919685	 -7.395448	 -2.873778
C	 7.556133	 -6.217560	 -3.294236
C	 8.371949	 -5.545265	 -2.200093
H	 8.209434	 -6.508348	 -4.105791
H	 6.828768	 -5.517741	 -3.701228
C	 9.281861	 -6.494221	 -1.423310
H	 8.965705	 -4.754360	 -2.648513
H	 7.678525	 -5.067981	 -1.511790
C	 8.502798	 -7.490231	 -0.565486
H	 9.947176	 -5.915778	 -0.791043
H	 9.911808	 -7.041870	 -2.122262
C	 9.362678	 -8.513966	 0.178039
H	 7.894395	 -6.944358	 0.151519
H	 7.807174	 -8.026308	 -1.205171
C	 10.091772	 -9.516336	 -0.714944
H	 10.100314	 -7.975930	 0.767054
H	 8.742622	 -9.052421	 0.891307
C	 9.147304	 -10.490800	 -1.414094
H	 10.804473	 -10.077920	 -0.114820
H	 10.673666	 -8.992423	 -1.467219
C	 7.963669	 -9.802083	 -2.085340
H	 9.702107	 -11.057671	 -2.156675
H	 8.779886	 -11.214784	 -0.691658
H	 8.297479	 -9.094228	 -2.836838
H	 7.315739	 -10.521040	 -2.573596
H	 7.366130	 -9.256687	 -1.362261

4 3 2 1 F
