%nprocshared=1
%mem=2GB
#HF/6-31G* nosymm scf=tight opt=ModRedundant

Mol

0 1
H	 -3.455472	 0.053442	 0.207773
C	 -3.211690	 0.303595	 -0.832235
C	 -2.331353	 1.514855	 -1.006789
O	 -3.635037	 -0.361203	 -1.721375
C	 -1.054718	 1.441943	 -0.157589
H	 -2.103293	 1.622970	 -2.060833
H	 -2.915819	 2.381772	 -0.700998
C	 -0.091842	 0.335926	 -0.596789
H	 -0.550210	 2.402045	 -0.211993
H	 -1.323940	 1.300490	 0.888006
C	 1.180775	 0.282413	 0.250794
H	 0.173308	 0.488813	 -1.640900
H	 -0.593154	 -0.629074	 -0.552066
C	 2.148627	 -0.814315	 -0.201312
H	 1.671481	 1.251605	 0.210717
H	 0.912770	 0.117370	 1.293539
C	 3.580890	 -0.659131	 0.322722
H	 2.166869	 -0.852443	 -1.289387
H	 1.762857	 -1.776509	 0.128956
C	 4.324889	 0.564933	 -0.213704
H	 4.142010	 -1.551473	 0.056605
H	 3.564836	 -0.624694	 1.410140
H	 4.342616	 0.565491	 -1.300421
H	 3.866655	 1.493402	 0.110242
H	 5.353900	 0.572371	 0.132816

8 11 14 18 F
