%nprocshared=1
%mem=2GB
#HF/6-31G* nosymm scf=tight 

Mol

0 1
H	 -0.495153	 -1.652463	 0.001388
N	 -0.626943	 -0.667432	 -0.000092
C	 -1.979713	 -0.158776	 -0.000610
C	 0.469286	 0.129090	 0.000148
H	 -2.519962	 -0.492815	 -0.880129
H	 -1.934739	 0.918109	 -0.005549
H	 -2.518074	 -0.484665	 0.883130
C	 1.788933	 -0.616240	 -0.000037
O	 0.411098	 1.327768	 -0.000049
H	 1.872803	 -1.245775	 -0.880381
H	 2.595421	 0.101576	 0.003713
H	 1.870096	 -1.252171	 0.875943

4 2 3 5 F
