%nprocshared=4
%mem=2GB
#HF/cc-pVTZ nosymm scf=tight opt=ModRedundant

Mol

0 1
H	 -2.816458	 -0.841657	 -0.064679
N	 -1.878861	 -0.711874	 0.250184
C	 -1.341419	 0.551458	 -0.220231
H	 -1.333674	 -1.468530	 -0.105118
C	 0.082190	 0.731516	 0.254705
H	 -1.357065	 0.652078	 -1.304747
H	 -1.939897	 1.357530	 0.189797
O	 0.881195	 -0.248324	 -0.336237
H	 0.440901	 1.722476	 -0.020063
H	 0.119896	 0.643586	 1.338114
C	 1.686840	 -0.948126	 0.552826
H	 2.256941	 -1.670656	 -0.013144
H	 2.377965	 -0.285451	 1.069452
H	 1.094066	 -1.474628	 1.297122

11 8 5 3 F
