%nprocshared=4
%mem=2GB
#HF/cc-pVTZ nosymm scf=tight opt=ModRedundant

Mol

0 1
O	 4.647954	 -2.725138	 -1.239830
C	 3.980773	 -1.923118	 -1.808218
C	 2.594562	 -2.274527	 -2.311187
C	 4.466263	 -0.512404	 -2.042641
C	 1.551197	 -2.129719	 -1.196170
H	 2.620619	 -3.301416	 -2.653141
H	 2.327317	 -1.641775	 -3.150871
C	 1.630207	 -0.772146	 -0.501001
H	 0.569618	 -2.278130	 -1.628263
H	 1.691109	 -2.916533	 -0.458845
C	 2.907848	 -0.545876	 0.309149
H	 0.767255	 -0.653934	 0.149628
H	 1.554193	 0.009451	 -1.251955
C	 3.373802	 0.906639	 0.372125
H	 3.699140	 -1.146831	 -0.127906
H	 2.764321	 -0.923458	 1.318191
H	 3.519798	 1.311927	 -0.623875
H	 4.316899	 0.983758	 0.900700
H	 2.661122	 1.540651	 0.885346
H	 4.625183	 -0.361847	 -3.105691
H	 5.391293	 -0.344441	 -1.512850
H	 3.719765	 0.207141	 -1.725487

12 8 11 15 F
