%nprocshared=4
%mem=2GB
#HF/cc-pVTZ nosymm scf=tight opt=ModRedundant

Mol

0 1
H	 2.751583	 -0.210472	 -0.702643
O	 1.911421	 -0.642685	 -0.735138
C	 1.050374	 0.054877	 0.000135
C	 -0.318151	 -0.570512	 0.000144
O	 1.364360	 1.042685	 0.569007
C	 -1.454884	 0.441630	 -0.000560
H	 -0.371613	 -1.223646	 -0.864985
H	 -0.371920	 -1.222758	 0.865929
C	 -2.822577	 -0.232186	 0.000063
H	 -1.359760	 1.084704	 -0.867077
H	 -1.359641	 1.085996	 0.864983
H	 -2.954352	 -0.858985	 -0.875745
H	 -3.615886	 0.505352	 0.000019
H	 -2.953878	 -0.858359	 0.876394

2 3 4 7 F
