%nprocshared=4
%mem=2GB
#HF/cc-pVTZ nosymm scf=tight opt=ModRedundant

Mol

0 1
H	 -1.752232	 -2.214755	 -0.011938
C	 -1.343852	 -1.221619	 -0.018179
N	 -0.058800	 -1.097635	 -0.261688
C	 -2.148159	 -0.124236	 0.219734
C	 0.449026	 0.119242	 -0.273393
H	 -3.196988	 -0.237571	 0.417076
N	 -1.655094	 1.094230	 0.209506
C	 -0.370318	 1.215445	 -0.035100
C	 1.924033	 0.265863	 -0.538106
H	 0.033214	 2.210441	 -0.046812
C	 2.731743	 0.499092	 0.739650
H	 2.271535	 -0.638323	 -1.023342
H	 2.085415	 1.084287	 -1.229735
H	 3.789195	 0.565257	 0.513038
H	 2.583488	 -0.314278	 1.437810
H	 2.434174	 1.420950	 1.226658

12 9 5 3 F
