%nprocshared=4
%mem=2GB
#HF/6-31G* nosymm scf=tight opt=ModRedundant

Mol

0 1
H	 -1.099309	 3.248080	 -2.497859
C	 -0.103206	 3.701148	 -2.419560
C	 0.389436	 3.917818	 -1.011381
O	 0.503339	 3.983464	 -3.401472
C	 0.308719	 2.644995	 -0.157179
H	 1.401531	 4.302731	 -1.058453
H	 -0.240273	 4.687739	 -0.567147
C	 1.263743	 1.540246	 -0.616263
H	 0.529635	 2.907689	 0.873098
H	 -0.714072	 2.271314	 -0.161454
C	 1.180775	 0.282413	 0.250794
H	 2.282253	 1.922804	 -0.604752
H	 1.053169	 1.276832	 -1.651064
C	 2.148627	 -0.814315	 -0.201312
H	 1.381660	 0.553304	 1.284232
H	 0.163014	 -0.104901	 0.227680
C	 3.580890	 -0.659131	 0.322722
H	 2.166869	 -0.852443	 -1.289387
H	 1.762857	 -1.776509	 0.128956
C	 4.324889	 0.564933	 -0.213704
H	 4.142010	 -1.551473	 0.056605
H	 3.564836	 -0.624694	 1.410140
H	 4.342616	 0.565491	 -1.300421
H	 3.866655	 1.493402	 0.110242
H	 5.353900	 0.572371	 0.132816

8 11 14 18 F
